                                  MODFLOW-2005     
      U.S. GEOLOGICAL SURVEY MODULAR FINITE-DIFFERENCE GROUND-WATER FLOW MODEL
                            VERSION 1.12.00 2/3/2017

 LIST FILE: Basic_Cosumnes.list
                         UNIT    2

 OPENING Basic_Cosumnes.dis
 FILE TYPE:DIS   UNIT   11   STATUS:OLD    
 FORMAT:FORMATTED              ACCESS:SEQUENTIAL          

 OPENING Basic_Cosumnes.bas
 FILE TYPE:BAS6   UNIT   13   STATUS:OLD    
 FORMAT:FORMATTED              ACCESS:SEQUENTIAL          

 OPENING Basic_Cosumnes.lpf
 FILE TYPE:LPF   UNIT   15   STATUS:OLD    
 FORMAT:FORMATTED              ACCESS:SEQUENTIAL          

 OPENING Basic_Cosumnes.oc
 FILE TYPE:OC   UNIT   14   STATUS:OLD    
 FORMAT:FORMATTED              ACCESS:SEQUENTIAL          

 OPENING Basic_Cosumnes.gmg
 FILE TYPE:GMG   UNIT   27   STATUS:OLD    
 FORMAT:FORMATTED              ACCESS:SEQUENTIAL          

 OPENING Basic_Cosumnes.cbc
 FILE TYPE:DATA(BINARY)   UNIT   53   STATUS:REPLACE
 FORMAT:BINARY                 ACCESS:SEQUENTIAL          

 OPENING Basic_Cosumnes.hds
 FILE TYPE:DATA(BINARY)   UNIT   51   STATUS:REPLACE
 FORMAT:BINARY                 ACCESS:SEQUENTIAL          

 BAS -- BASIC PACKAGE, VERSION 7, 5/2/2005 INPUT READ FROM UNIT   13
 
 MODFLOW was compiled using mixed precision
 Precision of REAL variables:           6
 Precision of DOUBLE PRECISION variables:          15

 DISCRETIZATION INPUT DATA READ FROM UNIT   11
 # DIS package for  MODFLOW-2005, generated by Flopy.
    5 LAYERS       130 ROWS       200 COLUMNS
    1 STRESS PERIOD(S) IN SIMULATION
 MODEL TIME UNIT IS DAYS
 MODEL LENGTH UNIT IS METERS
  Confining bed flag for each layer:
   0   0   0   0   0

                     DELR =   100.000    

                     DELC =   100.000    



           TOP ELEVATION OF LAYER 1
 READING ON UNIT   11 WITH FORMAT: (200E15.6)          



             MODEL LAYER BOTTOM EL. FOR LAYER   1
 READING ON UNIT   11 WITH FORMAT: (200E15.6)          



             MODEL LAYER BOTTOM EL. FOR LAYER   2
 READING ON UNIT   11 WITH FORMAT: (200E15.6)          



             MODEL LAYER BOTTOM EL. FOR LAYER   3
 READING ON UNIT   11 WITH FORMAT: (200E15.6)          



             MODEL LAYER BOTTOM EL. FOR LAYER   4
 READING ON UNIT   11 WITH FORMAT: (200E15.6)          



             MODEL LAYER BOTTOM EL. FOR LAYER   5
 READING ON UNIT   11 WITH FORMAT: (200E15.6)          


 STRESS PERIOD     LENGTH       TIME STEPS     MULTIPLIER FOR DELT    SS FLAG
 ----------------------------------------------------------------------------
        1         1.000000         10                    1.000         SS

 STEADY-STATE SIMULATION



 
 # BAS6 package for  MODFLOW-2005, generated by Flopy.                           
 THE FREE FORMAT OPTION HAS BEEN SELECTED



                     BOUNDARY ARRAY FOR LAYER   1
 READING ON UNIT   13 WITH FORMAT: (200I10)            



                     BOUNDARY ARRAY FOR LAYER   2
 READING ON UNIT   13 WITH FORMAT: (200I10)            



                     BOUNDARY ARRAY FOR LAYER   3
 READING ON UNIT   13 WITH FORMAT: (200I10)            



                     BOUNDARY ARRAY FOR LAYER   4
 READING ON UNIT   13 WITH FORMAT: (200I10)            



                     BOUNDARY ARRAY FOR LAYER   5
 READING ON UNIT   13 WITH FORMAT: (200I10)            

 AQUIFER HEAD WILL BE SET TO  -999.99     AT ALL NO-FLOW NODES (IBOUND=0).



                       INITIAL HEAD FOR LAYER   1
 READING ON UNIT   13 WITH FORMAT: (200E15.6)          



                       INITIAL HEAD FOR LAYER   2
 READING ON UNIT   13 WITH FORMAT: (200E15.6)          



                       INITIAL HEAD FOR LAYER   3
 READING ON UNIT   13 WITH FORMAT: (200E15.6)          



                       INITIAL HEAD FOR LAYER   4
 READING ON UNIT   13 WITH FORMAT: (200E15.6)          



                       INITIAL HEAD FOR LAYER   5
 READING ON UNIT   13 WITH FORMAT: (200E15.6)          
 # OC package for  MODFLOW-2005, generated by Flopy.

 OUTPUT CONTROL IS SPECIFIED ONLY AT TIME STEPS FOR WHICH OUTPUT IS DESIRED
 COMPACT CELL-BY-CELL BUDGET FILES WILL BE WRITTEN
 AUXILIARY DATA WILL BE SAVED IN CELL-BY-CELL BUDGET FILES
 HEAD PRINT FORMAT CODE IS   0    DRAWDOWN PRINT FORMAT CODE IS   0
 HEADS WILL BE SAVED ON UNIT   51    DRAWDOWNS WILL BE SAVED ON UNIT    0

 LPF -- LAYER-PROPERTY FLOW PACKAGE, VERSION 7, 5/2/2005
         INPUT READ FROM UNIT   15
 # LPF package for  MODFLOW-2005, generated by Flopy.
 CELL-BY-CELL FLOWS WILL BE SAVED ON UNIT   53
 HEAD AT CELLS THAT CONVERT TO DRY= -1.00000E+30
 No named parameters

   LAYER FLAGS:
 LAYER       LAYTYP        LAYAVG         CHANI        LAYVKA        LAYWET
 ---------------------------------------------------------------------------
    1             0             0     1.000E+00             0             0
    2             0             0     1.000E+00             0             0
    3             0             0     1.000E+00             0             0
    4             0             0     1.000E+00             0             0
    5             0             0     1.000E+00             0             0

   INTERPRETATION OF LAYER FLAGS:
                        INTERBLOCK     HORIZONTAL    DATA IN
         LAYER TYPE   TRANSMISSIVITY   ANISOTROPY   ARRAY VKA   WETTABILITY
 LAYER      (LAYTYP)      (LAYAVG)       (CHANI)      (LAYVKA)      (LAYWET)
 ---------------------------------------------------------------------------
    1      CONFINED      HARMONIC     1.000E+00    VERTICAL K  NON-WETTABLE
    2      CONFINED      HARMONIC     1.000E+00    VERTICAL K  NON-WETTABLE
    3      CONFINED      HARMONIC     1.000E+00    VERTICAL K  NON-WETTABLE
    4      CONFINED      HARMONIC     1.000E+00    VERTICAL K  NON-WETTABLE
    5      CONFINED      HARMONIC     1.000E+00    VERTICAL K  NON-WETTABLE

 WETTING CAPABILITY IS NOT ACTIVE IN ANY LAYER

    HYD. COND. ALONG ROWS =  1.000000E-06 FOR LAYER   1

      VERTICAL HYD. COND. =  1.000000E-06 FOR LAYER   1

    HYD. COND. ALONG ROWS =  1.000000E-04 FOR LAYER   2

      VERTICAL HYD. COND. =  1.000000E-04 FOR LAYER   2

    HYD. COND. ALONG ROWS =  1.000000E-08 FOR LAYER   3

      VERTICAL HYD. COND. =  1.000000E-08 FOR LAYER   3

    HYD. COND. ALONG ROWS =  1.000000E-04 FOR LAYER   4

      VERTICAL HYD. COND. =  1.000000E-04 FOR LAYER   4

    HYD. COND. ALONG ROWS =  1.000000E-08 FOR LAYER   5

      VERTICAL HYD. COND. =  1.000000E-08 FOR LAYER   5
 # GMG package for  MODFLOW-2005, generated by Flopy.
 -------------------------------------------------
 GMG -- PCG GEOMETRIC MULTI-GRID SOLUTION PACKAGE:
 -------------------------------------------------
 RCLOSE  = 1.00E-05; INNER CONVERGENCE CRITERION
 IITER   =       30; MAX INNER ITERATIONS            
 HCLOSE  = 1.00E-05; OUTER CONVERGENCE CRITERION
 MXIITER =       50; MAX OUTER ITERATIONS            
 DAMP    = 1.00E+00; DAMPING PARAMETER          
 IADAMP  =        0; ADAPTIVE DAMPING FLAG           
 IOUTGMG =        0; OUTPUT CONTROL FLAG             
 ISM     =        0; SMOOTHER FLAG                   
 ISC     =        0; COARSENING FLAG                 
 RELAX   = 0.00E+00; RELAXATION PARAMETER       
 -------------------------------------------------
 ILU SMOOTHING IMPLEMENTED
 FULL COARSENING
 -------------------------------------------------
    9 MEGABYTES OF MEMORY ALLOCATED BY GMG
 -------------------------------------------------

1
                            STRESS PERIOD NO.    1, LENGTH =   1.000000    
                            -----------------------------------------------

                              NUMBER OF TIME STEPS =    10

                               MULTIPLIER FOR DELT =     1.000

                            INITIAL TIME STEP SIZE =  0.1000000    
 
 SOLVING FOR HEAD 

 OUTPUT CONTROL FOR STRESS PERIOD    1   TIME STEP    1
    PRINT HEAD FOR ALL LAYERS
    PRINT BUDGET
    SAVE HEAD FOR ALL LAYERS
    SAVE BUDGET
 UBDSV2 SAVING "   CONSTANT HEAD" ON UNIT  53 AT TIME STEP  1, STRESS PERIOD   1
 UBDSV1 SAVING "FLOW RIGHT FACE " ON UNIT  53 AT TIME STEP  1, STRESS PERIOD   1
 UBDSV1 SAVING "FLOW FRONT FACE " ON UNIT  53 AT TIME STEP  1, STRESS PERIOD   1
 UBDSV1 SAVING "FLOW LOWER FACE " ON UNIT  53 AT TIME STEP  1, STRESS PERIOD   1
1
              HEAD IN LAYER   1 AT END OF TIME STEP   1 IN STRESS PERIOD    1
  ---------------------------------------------------------------------------

            1           2           3           4           5           6           7           8           9          10
           11          12          13          14          15          16          17          18          19          20
           21          22          23          24          25          26          27          28          29          30
           31          32          33          34          35          36          37          38          39          40
           41          42          43          44          45          46          47          48          49          50
           51          52          53          54          55          56          57          58          59          60
           61          62          63          64          65          66          67          68          69          70
           71          72          73          74          75          76          77          78          79          80
           81          82          83          84          85          86          87          88          89          90
           91          92          93          94          95          96          97          98          99         100
          101         102         103         104         105         106         107         108         109         110
          111         112         113         114         115         116         117         118         119         120
          121         122         123         124         125         126         127         128         129         130
          131         132         133         134         135         136         137         138         139         140
          141         142         143         144         145         146         147         148         149         150
          151         152         153         154         155         156         157         158         159         160
          161         162         163         164         165         166         167         168         169         170
          171         172         173         174         175         176         177         178         179         180
          181         182         183         184         185         186         187         188         189         190
          191         192         193         194         195         196         197         198         199         200
 ........................................................................................................................
   1   -1.000     -0.9939     -0.9879     -0.9818     -0.9758     -0.9697     -0.9636     -0.9576     -0.9515     -0.9455    
      -0.9394     -0.9333     -0.9273     -0.9212     -0.9152     -0.9091     -0.9030     -0.8970     -0.8909     -0.8848    
      -0.8788     -0.8727     -0.8667     -0.8606     -0.8545     -0.8485     -0.8424     -0.8364     -0.8303     -0.8242    
      -0.8182     -0.8121     -0.8061     -0.8000     -0.7939     -0.7879     -0.7818     -0.7758     -0.7697     -0.7636    
      -0.7576     -0.7515     -0.7455     -0.7394     -0.7333     -0.7273     -0.7212     -0.7152     -0.7091     -0.7030    
      -0.6970     -0.6909     -0.6848     -0.6788     -0.6727     -0.6667     -0.6606     -0.6545     -0.6485     -0.6424    
      -0.6364     -0.6303     -0.6242     -0.6182     -0.6121     -0.6061     -0.6000     -0.5939     -0.5879     -0.5818    
      -0.5758     -0.5697     -0.5636     -0.5576     -0.5515     -0.5455     -0.5394     -0.5333     -0.5273     -0.5212    
      -0.5152     -0.5091     -0.5030     -0.4970     -0.4909     -0.4848     -0.4788     -0.4727     -0.4667     -0.4606    
      -0.4545     -0.4485     -0.4424     -0.4364     -0.4303     -0.4242     -0.4182     -0.4121     -0.4061     -0.4000    
      -0.3939     -0.3879     -0.3818     -0.3758     -0.3697     -0.3636     -0.3576     -0.3515     -0.3455     -0.3394    
      -0.3333     -0.3273     -0.3212     -0.3152     -0.3091     -0.3030     -0.2970     -0.2909     -0.2848     -0.2788    
      -0.2727     -0.2667     -0.2606     -0.2545     -0.2485     -0.2424     -0.2364     -0.2303     -0.2242     -0.2182    
      -0.2121     -0.2061     -0.2000     -1000.0     -1000.0     -1000.0     -1000.0     -1000.0     -1000.0     -1000.0    
      -1000.0     -1000.0     -1000.0     -1000.0     -1000.0     -1000.0     -1000.0     -1000.0     -1000.0     -1000.0    
      -1000.0     -1000.0     -1000.0     -1000.0     -1000.0     -1000.0     -1000.0     -1000.0     -1000.0     -1000.0    
      -1000.0     -1000.0     -1000.0     -1000.0     -1000.0     -1000.0     -1000.0     -1000.0     -1000.0     -1000.0    
      -1000.0     -1000.0     -1000.0     -1000.0     -1000.0     -1000.0     -1000.0     -1000.0     -1000.0     -1000.0    
      -1000.0     -1000.0     -1000.0     -1000.0     -1000.0     -1000.0     -1000.0     -1000.0     -1000.0     -1000.0    
      -1000.0     -1000.0     -1000.0     -1000.0     -1000.0     -1000.0     -1000.0     -1000.0     -1000.0     -1000.0    
   2   -1.000     -0.9939     -0.9879     -0.9818     -0.9758     -0.9697     -0.9636     -0.9576     -0.9515     -0.9455    
      -0.9394     -0.9333     -0.9273     -0.9212     -0.9152     -0.9091     -0.9030     -0.8970     -0.8909     -0.8848    
      -0.8788     -0.8727     -0.8667     -0.8606     -0.8545     -0.8485     -0.8424     -0.8364     -0.8303     -0.8242    
      -0.8182     -0.8121     -0.8061     -0.8000     -0.7939     -0.7879     -0.7818     -0.7758     -0.7697     -0.7636    
      -0.7576     -0.7515     -0.7455     -0.7394     -0.7333     -0.7273     -0.7212     -0.7152     -0.7091     -0.7030    
      -0.6970     -0.6909     -0.6848     -0.6788     -0.6727     -0.6667     -0.6606     -0.6545     -0.6485     -0.6424    
      -0.6364     -0.6303     -0.6242     -0.6182     -0.6121     -0.6061     -0.6000     -0.5939     -0.5879     -0.5818    
      -0.5758     -0.5697     -0.5636     -0.5576     -0.5515     -0.5455     -0.5394     -0.5333     -0.5273     -0.5212    
      -0.5152     -0.5091     -0.5030     -0.4970     -0.4909     -0.4848     -0.4788     -0.4727     -0.4667     -0.4606    
      -0.4545     -0.4485     -0.4424     -0.4364     -0.4303     -0.4242     -0.4182     -0.4121     -0.4061     -0.4000    
      -0.3939     -0.3879     -0.3818     -0.3758     -0.3697     -0.3636     -0.3576     -0.3515     -0.3455     -0.3394    
      -0.3333     -0.3273     -0.3212     -0.3152     -0.3091     -0.3030     -0.2970     -0.2909     -0.2848     -0.2788    
      -0.2727     -0.2667     -0.2606     -0.2545     -0.2485     -0.2424     -0.2364     -0.2303     -0.2242     -0.2182    
      -0.2121     -0.2061     -0.2000     -1000.0     -1000.0     -1000.0     -1000.0     -1000.0     -1000.0     -1000.0    
      -1000.0     -1000.0     -1000.0     -1000.0     -1000.0     -1000.0     -1000.0     -1000.0     -1000.0     -1000.0    
      -1000.0     -1000.0     -1000.0     -1000.0     -1000.0     -1000.0     -1000.0     -1000.0     -1000.0     -1000.0    
      -1000.0     -1000.0     -1000.0     -1000.0     -1000.0     -1000.0     -1000.0     -1000.0     -1000.0     -1000.0    
      -1000.0     -1000.0     -1000.0     -1000.0     -1000.0     -1000.0     -1000.0     -1000.0     -1000.0     -1000.0    
      -1000.0     -1000.0     -1000.0     -1000.0     -1000.0     -1000.0     -1000.0     -1000.0     -1000.0     -1000.0    
      -1000.0     -1000.0     -1000.0     -1000.0     -1000.0     -1000.0     -1000.0     -1000.0     -1000.0     -1000.0    
   3   -1.000     -0.9939     -0.9879     -0.9818     -0.9758     -0.9697     -0.9636     -0.9576     -0.9515     -0.9455    
      -0.9394     -0.9333     -0.9273     -0.9212     -0.9152     -0.9091     -0.9030     -0.8970     -0.8909     -0.8848    
      -0.8788     -0.8727     -0.8667     -0.8606     -0.8545     -0.8485     -0.8424     -0.8364     -0.8303     -0.8242    
      -0.8182     -0.8121     -0.8061     -0.8000     -0.7939     -0.7879     -0.7818     -0.7758     -0.7697     -0.7636    
      -0.7576     -0.7515     -0.7455     -0.7394     -0.7333     -0.7273     -0.7212     -0.7152     -0.7091     -0.7030    
      -0.6970     -0.6909     -0.6848     -0.6788     -0.6727     -0.6667     -0.6606     -0.6545     -0.6485     -0.6424    
      -0.6364     -0.6303     -0.6242     -0.6182     -0.6121     -0.6061     -0.6000     -0.5939     -0.5879     -0.5818    
      -0.5758     -0.5697     -0.5636     -0.5576     -0.5515     -0.5455     -0.5394     -0.5333     -0.5273     -0.5212    
      -0.5152     -0.5091     -0.5030     -0.4970     -0.4909     -0.4848     -0.4788     -0.4727     -0.4667     -0.4606    
      -0.4545     -0.4485     -0.4424     -0.4364     -0.4303     -0.4242     -0.4182     -0.4121     -0.4061     -0.4000    
      -0.3939     -0.3879     -0.3818     -0.3758     -0.3697     -0.3636     -0.3576     -0.3515     -0.3455     -0.3394    
      -0.3333     -0.3273     -0.3212     -0.3152     -0.3091     -0.3030     -0.2970     -0.2909     -0.2848     -0.2788    
      -0.2727     -0.2667     -0.2606     -0.2545     -0.2485     -0.2424     -0.2364     -0.2303     -0.2242     -0.2182    
      -0.2121     -0.2061     -0.2000     -1000.0     -1000.0     -1000.0     -1000.0     -1000.0     -1000.0     -1000.0    
      -1000.0     -1000.0     -1000.0     -1000.0     -1000.0     -1000.0     -1000.0     -1000.0     -1000.0     -1000.0    
      -1000.0     -1000.0     -1000.0     -1000.0     -1000.0     -1000.0     -1000.0     -1000.0     -1000.0     -1000.0    
      -1000.0     -1000.0     -1000.0     -1000.0     -1000.0     -1000.0     -1000.0     -1000.0     -1000.0     -1000.0    
      -1000.0     -1000.0     -1000.0     -1000.0     -1000.0     -1000.0     -1000.0     -1000.0     -1000.0     -1000.0    
      -1000.0     -1000.0     -1000.0     -1000.0     -1000.0     -1000.0     -1000.0     -1000.0     -1000.0     -1000.0    
      -1000.0     -1000.0     -1000.0     -1000.0     -1000.0     -1000.0     -1000.0     -1000.0     -1000.0     -1000.0    
   4   -1.000     -0.9939     -0.9879     -0.9818     -0.9758     -0.9697     -0.9636     -0.9576     -0.9515     -0.9455    
      -0.9394     -0.9333     -0.9273     -0.9212     -0.9152     -0.9091     -0.9030     -0.8970     -0.8909     -0.8848    
      -0.8788     -0.8727     -0.8667     -0.8606     -0.8545     -0.8485     -0.8424     -0.8364     -0.8303     -0.8242    
      -0.8182     -0.8121     -0.8061     -0.8000     -0.7939     -0.7879     -0.7818     -0.7758     -0.7697     -0.7636    
      -0.7576     -0.7515     -0.7455     -0.7394     -0.7333     -0.7273     -0.7212     -0.7152     -0.7091     -0.7030    
      -0.6970     -0.6909     -0.6848     -0.6788     -0.6727     -0.6667     -0.6606     -0.6545     -0.6485     -0.6424    
      -0.6364     -0.6303     -0.6242     -0.6182     -0.6121     -0.6061     -0.6000     -0.5939     -0.5879     -0.5818    
      -0.5758     -0.5697     -0.5636     -0.5576     -0.5515     -0.5455     -0.5394     -0.5333     -0.5273     -0.5212    
      -0.5152     -0.5091     -0.5030     -0.4970     -0.4909     -0.4848     -0.4788     -0.4727     -0.4667     -0.4606    
      -0.4545     -0.4485     -0.4424     -0.4364     -0.4303     -0.4242     -0.4182     -0.4121     -0.4061     -0.4000    
      -0.3939     -0.3879     -0.3818     -0.3758     -0.3697     -0.3636     -0.3576     -0.3515     -0.3455     -0.3394    
      -0.3333     -0.3273     -0.3212     -0.3152     -0.3091     -0.3030     -0.2970     -0.2909     -0.2848     -0.2788    
      -0.2727     -0.2667     -0.2606     -0.2545     -0.2485     -0.2424     -0.2364     -0.2303     -0.2242     -0.2182    
      -0.2121     -0.2061     -0.2000     -1000.0     -1000.0     -1000.0     -1000.0     -1000.0     -1000.0     -1000.0    
      -1000.0     -1000.0     -1000.0     -1000.0     -1000.0     -1000.0     -1000.0     -1000.0     -1000.0     -1000.0    
      -1000.0     -1000.0     -1000.0     -1000.0     -1000.0     -1000.0     -1000.0     -1000.0     -1000.0     -1000.0    
      -1000.0     -1000.0     -1000.0     -1000.0     -1000.0     -1000.0     -1000.0     -1000.0     -1000.0     -1000.0    
      -1000.0     -1000.0     -1000.0     -1000.0     -1000.0     -1000.0     -1000.0     -1000.0     -1000.0     -1000.0    
      -1000.0     -1000.0     -1000.0     -1000.0     -1000.0     -1000.0     -1000.0     -1000.0     -1000.0     -1000.0    
      -1000.0     -1000.0     -1000.0     -1000.0     -1000.0     -1000.0     -1000.0     -1000.0     -1000.0     -1000.0    
   5   -1.000     -0.9939     -0.9879     -0.9818     -0.9758     -0.9697     -0.9636     -0.9576     -0.9515     -0.9455    
      -0.9394     -0.9333     -0.9273     -0.9212     -0.9152     -0.9091     -0.9030     -0.8970     -0.8909     -0.8848    
      -0.8788     -0.8727     -0.8667     -0.8606     -0.8545     -0.8485     -0.8424     -0.8364     -0.8303     -0.8242    
      -0.8182     -0.8121     -0.8061     -0.8000     -0.7939     -0.7879     -0.7818     -0.7758     -0.7697     -0.7636    
      -0.7576     -0.7515     -0.7455     -0.7394     -0.7333     -0.7273     -0.7212     -0.7152     -0.7091     -0.7030    
      -0.6970     -0.6909     -0.6848     -0.6788     -0.6727     -0.6667     -0.6606     -0.6545     -0.6485     -0.6424    
      -0.6364     -0.6303     -0.6242     -0.6182     -0.6121     -0.6061     -0.6000     -0.5939     -0.5879     -0.5818    
      -0.5758     -0.5697     -0.5636     -0.5576     -0.5515     -0.5455     -0.5394     -0.5333     -0.5273     -0.5212    
      -0.5152     -0.5091     -0.5030     -0.4970     -0.4909     -0.4848     -0.4788     -0.4727     -0.4667     -0.4606    
      -0.4545     -0.4485     -0.4424     -0.4364     -0.4303     -0.4242     -0.4182     -0.4121     -0.4061     -0.4000    
      -0.3939     -0.3879     -0.3818     -0.3758     -0.3697     -0.3636     -0.3576     -0.3515     -0.3455     -0.3394    
      -0.3333     -0.3273     -0.3212     -0.3152     -0.3091     -0.3030     -0.2970     -0.2909     -0.2848     -0.2788    
      -0.2727     -0.2667     -0.2606     -0.2545     -0.2485     -0.2424     -0.2364     -0.2303     -0.2242     -0.2182    
      -0.2121     -0.2061     -0.2000     -1000.0     -1000.0     -1000.0     -1000.0     -1000.0     -1000.0     -1000.0    
      -1000.0     -1000.0     -1000.0     -1000.0     -1000.0     -1000.0     -1000.0     -1000.0     -1000.0     -1000.0    
      -1000.0     -1000.0     -1000.0     -1000.0     -1000.0     -1000.0     -1000.0     -1000.0     -1000.0     -1000.0    
      -1000.0     -1000.0     -1000.0     -1000.0     -1000.0     -1000.0     -1000.0     -1000.0     -1000.0     -1000.0    
      -1000.0     -1000.0     -1000.0     -1000.0     -1000.0     -1000.0     -1000.0     -1000.0     -1000.0     -1000.0    
      -1000.0     -1000.0     -1000.0     -1000.0     -1000.0     -1000.0     -1000.0     -1000.0     -1000.0     -1000.0    
      -1000.0     -1000.0     -1000.0     -1000.0     -1000.0     -1000.0     -1000.0     -1000.0     -1000.0     -1000.0    
   6   -1.000     -0.9939     -0.9879     -0.9818     -0.9758     -0.9697     -0.9636     -0.9576     -0.9515     -0.9455    
      -0.9394     -0.9333     -0.9273     -0.9212     -0.9152     -0.9091     -0.9030     -0.8970     -0.8909     -0.8848    
      -0.8788     -0.8727     -0.8667     -0.8606     -0.8545     -0.8485     -0.8424     -0.8364     -0.8303     -0.8242    
      -0.8182     -0.8121     -0.8061     -0.8000     -0.7939     -0.7879     -0.7818     -0.7758     -0.7697     -0.7636    
      -0.7576     -0.7515     -0.7455     -0.7394     -0.7333     -0.7273     -0.7212     -0.7152     -0.7091     -0.7030    
      -0.6970     -0.6909     -0.6848     -0.6788     -0.6727     -0.6667     -0.6606     -0.6545     -0.6485     -0.6424    
      -0.6364     -0.6303     -0.6242     -0.6182     -0.6121     -0.6061     -0.6000     -0.5939     -0.5879     -0.5818    
      -0.5758     -0.5697     -0.5636     -0.5576     -0.5515     -0.5455     -0.5394     -0.5333     -0.5273     -0.5212    
      -0.5152     -0.5091     -0.5030     -0.4970     -0.4909     -0.4848     -0.4788     -0.4727     -0.4667     -0.4606    
      -0.4545     -0.4485     -0.4424     -0.4364     -0.4303     -0.4242     -0.4182     -0.4121     -0.4061     -0.4000    
      -0.3939     -0.3879     -0.3818     -0.3758     -0.3697     -0.3636     -0.3576     -0.3515     -0.3455     -0.3394    
      -0.3333     -0.3273     -0.3212     -0.3152     -0.3091     -0.3030     -0.2970     -0.2909     -0.2848     -0.2788    
      -0.2727     -0.2667     -0.2606     -0.2545     -0.2485     -0.2424     -0.2364     -0.2303     -0.2242     -0.2182    
      -0.2121     -0.2061     -0.2000     -1000.0     -1000.0     -1000.0     -1000.0     -1000.0     -1000.0     -1000.0    
      -1000.0     -1000.0     -1000.0     -1000.0     -1000.0     -1000.0     -1000.0     -1000.0     -1000.0     -1000.0    
      -1000.0     -1000.0     -1000.0     -1000.0     -1000.0     -1000.0     -1000.0     -1000.0     -1000.0     -1000.0    
      -1000.0     -1000.0     -1000.0     -1000.0     -1000.0     -1000.0     -1000.0     -1000.0     -1000.0     -1000.0    
      -1000.0     -1000.0     -1000.0     -1000.0     -1000.0     -1000.0     -1000.0     -1000.0     -1000.0     -1000.0    
      -1000.0     -1000.0     -1000.0     -1000.0     -1000.0     -1000.0     -1000.0     -1000.0     -1000.0     -1000.0    
      -1000.0     -1000.0     -1000.0     -1000.0     -1000.0     -1000.0     -1000.0     -1000.0     -1000.0     -1000.0    
   7   -1.000     -0.9939     -0.9879     -0.9818     -0.9758     -0.9697     -0.9636     -0.9576     -0.9515     -0.9455    
      -0.9394     -0.9333     -0.9273     -0.9212     -0.9152     -0.9091     -0.9030     -0.8970     -0.8909     -0.8848    
      -0.8788     -0.8727     -0.8667     -0.8606     -0.8545     -0.8485     -0.8424     -0.8364     -0.8303     -0.8242    
      -0.8182     -0.8121     -0.8061     -0.8000     -0.7939     -0.7879     -0.7818     -0.7758     -0.7697     -0.7636    
      -0.7576     -0.7515     -0.7455     -0.7394     -0.7333     -0.7273     -0.7212     -0.7152     -0.7091     -0.7030    
      -0.6970     -0.6909     -0.6848     -0.6788     -0.6727     -0.6667     -0.6606     -0.6545     -0.6485     -0.6424    
      -0.6364     -0.6303     -0.6242     -0.6182     -0.6121     -0.6061     -0.6000     -0.5939     -0.5879     -0.5818    
      -0.5758     -0.5697     -0.5636     -0.5576     -0.5515     -0.5455     -0.5394     -0.5333     -0.5273     -0.5212    
      -0.5152     -0.5091     -0.5030     -0.4970     -0.4909     -0.4848     -0.4788     -0.4727     -0.4667     -0.4606    
      -0.4545     -0.4485     -0.4424     -0.4364     -0.4303     -0.4242     -0.4182     -0.4121     -0.4061     -0.4000    
      -0.3939     -0.3879     -0.3818     -0.3758     -0.3697     -0.3636     -0.3576     -0.3515     -0.3455     -0.3394    
      -0.3333     -0.3273     -0.3212     -0.3152     -0.3091     -0.3030     -0.2970     -0.2909     -0.2848     -0.2788    
      -0.2727     -0.2667     -0.2606     -0.2545     -0.2485     -0.2424     -0.2364     -0.2303     -0.2242     -0.2182    
      -0.2121     -0.2061     -0.2000     -1000.0     -1000.0     -1000.0     -1000.0     -1000.0     -1000.0     -1000.0    
      -1000.0     -1000.0     -1000.0     -1000.0     -1000.0     -1000.0     -1000.0     -1000.0     -1000.0     -1000.0    
      -1000.0     -1000.0     -1000.0     -1000.0     -1000.0     -1000.0     -1000.0     -1000.0     -1000.0     -1000.0    
      -1000.0     -1000.0     -1000.0     -1000.0     -1000.0     -1000.0     -1000.0     -1000.0     -1000.0     -1000.0    
      -1000.0     -1000.0     -1000.0     -1000.0     -1000.0     -1000.0     -1000.0     -1000.0     -1000.0     -1000.0    
      -1000.0     -1000.0     -1000.0     -1000.0     -1000.0     -1000.0     -1000.0     -1000.0     -1000.0     -1000.0    
      -1000.0     -1000.0     -1000.0     -1000.0     -1000.0     -1000.0     -1000.0     -1000.0     -1000.0     -1000.0    
   8   -1.000     -0.9939     -0.9879     -0.9818     -0.9758     -0.9697     -0.9636     -0.9576     -0.9515     -0.9455    
      -0.9394     -0.9333     -0.9273     -0.9212     -0.9152     -0.9091     -0.9030     -0.8970     -0.8909     -0.8848    
      -0.8788     -0.8727     -0.8667     -0.8606     -0.8545     -0.8485     -0.8424     -0.8364     -0.8303     -0.8242    
      -0.8182     -0.8121     -0.8061     -0.8000     -0.7939     -0.7879     -0.7818     -0.7758     -0.7697     -0.7636    
      -0.7576     -0.7515     -0.7455     -0.7394     -0.7333     -0.7273     -0.7212     -0.7152     -0.7091     -0.7030    
      -0.6970     -0.6909     -0.6848     -0.6788     -0.6727     -0.6667     -0.6606     -0.6545     -0.6485     -0.6424    
      -0.6364     -0.6303     -0.6242     -0.6182     -0.6121     -0.6061     -0.6000     -0.5939     -0.5879     -0.5818    
      -0.5758     -0.5697     -0.5636     -0.5576     -0.5515     -0.5455     -0.5394     -0.5333     -0.5273     -0.5212    
      -0.5152     -0.5091     -0.5030     -0.4970     -0.4909     -0.4848     -0.4788     -0.4727     -0.4667     -0.4606    
      -0.4545     -0.4485     -0.4424     -0.4364     -0.4303     -0.4242     -0.4182     -0.4121     -0.4061     -0.4000    
      -0.3939     -0.3879     -0.3818     -0.3758     -0.3697     -0.3636     -0.3576     -0.3515     -0.3455     -0.3394    
      -0.3333     -0.3273     -0.3212     -0.3152     -0.3091     -0.3030     -0.2970     -0.2909     -0.2848     -0.2788    
      -0.2727     -0.2667     -0.2606     -0.2545     -0.2485     -0.2424     -0.2364     -0.2303     -0.2242     -0.2182    
      -0.2121     -0.2061     -0.2000     -1000.0     -1000.0     -1000.0     -1000.0     -1000.0     -1000.0     -1000.0    
      -1000.0     -1000.0     -1000.0     -1000.0     -1000.0     -1000.0     -1000.0     -1000.0     -1000.0     -1000.0    
      -1000.0     -1000.0     -1000.0     -1000.0     -1000.0     -1000.0     -1000.0     -1000.0     -1000.0     -1000.0    
      -1000.0     -1000.0     -1000.0     -1000.0     -1000.0     -1000.0     -1000.0     -1000.0     -1000.0     -1000.0    
      -1000.0     -1000.0     -1000.0     -1000.0     -1000.0     -1000.0     -1000.0     -1000.0     -1000.0     -1000.0    
      -1000.0     -1000.0     -1000.0     -1000.0     -1000.0     -1000.0     -1000.0     -1000.0     -1000.0     -1000.0    
      -1000.0     -1000.0     -1000.0     -1000.0     -1000.0     -1000.0     -1000.0     -1000.0     -1000.0     -1000.0    
   9   -1.000     -0.9939     -0.9879     -0.9818     -0.9758     -0.9697     -0.9636     -0.9576     -0.9515     -0.9455    
      -0.9394     -0.9333     -0.9273     -0.9212     -0.9152     -0.9091     -0.9030     -0.8970     -0.8909     -0.8848    
      -0.8788     -0.8727     -0.8667     -0.8606     -0.8545     -0.8485     -0.8424     -0.8364     -0.8303     -0.8242    
      -0.8182     -0.8121     -0.8061     -0.8000     -0.7939     -0.7879     -0.7818     -0.7758     -0.7697     -0.7636    
      -0.7576     -0.7515     -0.7455     -0.7394     -0.7333     -0.7273     -0.7212     -0.7152     -0.7091     -0.7030    
      -0.6970     -0.6909     -0.6848     -0.6788     -0.6727     -0.6667     -0.6606     -0.6545     -0.6485     -0.6424    
      -0.6364     -0.6303     -0.6242     -0.6182     -0.6121     -0.6061     -0.6000     -0.5939     -0.5879     -0.5818    
      -0.5758     -0.5697     -0.5636     -0.5576     -0.5515     -0.5455     -0.5394     -0.5333     -0.5273     -0.5212    
      -0.5152     -0.5091     -0.5030     -0.4970     -0.4909     -0.4848     -0.4788     -0.4727     -0.4667     -0.4606    
      -0.4545     -0.4485     -0.4424     -0.4364     -0.4303     -0.4242     -0.4182     -0.4121     -0.4061     -0.4000    
      -0.3939     -0.3879     -0.3818     -0.3758     -0.3697     -0.3636     -0.3576     -0.3515     -0.3455     -0.3394    
      -0.3333     -0.3273     -0.3212     -0.3152     -0.3091     -0.3030     -0.2970     -0.2909     -0.2848     -0.2788    
      -0.2727     -0.2667     -0.2606     -0.2545     -0.2485     -0.2424     -0.2364     -0.2303     -0.2242     -0.2182    
      -0.2121     -0.2061     -0.2000     -1000.0     -1000.0     -1000.0     -1000.0     -1000.0     -1000.0     -1000.0    
      -1000.0     -1000.0     -1000.0     -1000.0     -1000.0     -1000.0     -1000.0     -1000.0     -1000.0     -1000.0    
      -1000.0     -1000.0     -1000.0     -1000.0     -1000.0     -1000.0     -1000.0     -1000.0     -1000.0     -1000.0    
      -1000.0     -1000.0     -1000.0     -1000.0     -1000.0     -1000.0     -1000.0     -1000.0     -1000.0     -1000.0    
      -1000.0     -1000.0     -1000.0     -1000.0     -1000.0     -1000.0     -1000.0     -1000.0     -1000.0     -1000.0    
      -1000.0     -1000.0     -1000.0     -1000.0     -1000.0     -1000.0     -1000.0     -1000.0     -1000.0     -1000.0    
      -1000.0     -1000.0     -1000.0     -1000.0     -1000.0     -1000.0     -1000.0     -1000.0     -1000.0     -1000.0    
  10   -1.000     -0.9939     -0.9879     -0.9818     -0.9758     -0.9697     -0.9636     -0.9576     -0.9515     -0.9455    
      -0.9394     -0.9333     -0.9273     -0.9212     -0.9152     -0.9091     -0.9030     -0.8970     -0.8909     -0.8848    
      -0.8788     -0.8727     -0.8667     -0.8606     -0.8545     -0.8485     -0.8424     -0.8364     -0.8303     -0.8242    
      -0.8182     -0.8121     -0.8061     -0.8000     -0.7939     -0.7879     -0.7818     -0.7758     -0.7697     -0.7636    
      -0.7576     -0.7515     -0.7455     -0.7394     -0.7333     -0.7273     -0.7212     -0.7152     -0.7091     -0.7030    
      -0.6970     -0.6909     -0.6848     -0.6788     -0.6727     -0.6667     -0.6606     -0.6545     -0.6485     -0.6424    
      -0.6364     -0.6303     -0.6242     -0.6182     -0.6121     -0.6061     -0.6000     -0.5939     -0.5879     -0.5818    
      -0.5758     -0.5697     -0.5636     -0.5576     -0.5515     -0.5455     -0.5394     -0.5333     -0.5273     -0.5212    
      -0.5152     -0.5091     -0.5030     -0.4970     -0.4909     -0.4848     -0.4788     -0.4727     -0.4667     -0.4606    
      -0.4545     -0.4485     -0.4424     -0.4364     -0.4303     -0.4242     -0.4182     -0.4121     -0.4061     -0.4000    
      -0.3939     -0.3879     -0.3818     -0.3758     -0.3697     -0.3636     -0.3576     -0.3515     -0.3455     -0.3394    
      -0.3333     -0.3273     -0.3212     -0.3152     -0.3091     -0.3030     -0.2970     -0.2909     -0.2848     -0.2788    
      -0.2727     -0.2667     -0.2606     -0.2545     -0.2485     -0.2424     -0.2364     -0.2303     -0.2242     -0.2182    
      -0.2121     -0.2061     -0.2000     -1000.0     -1000.0     -1000.0     -1000.0     -1000.0     -1000.0     -1000.0    
      -1000.0     -1000.0     -1000.0     -1000.0     -1000.0     -1000.0     -1000.0     -1000.0     -1000.0     -1000.0    
      -1000.0     -1000.0     -1000.0     -1000.0     -1000.0     -1000.0     -1000.0     -1000.0     -1000.0     -1000.0    
      -1000.0     -1000.0     -1000.0     -1000.0     -1000.0     -1000.0     -1000.0     -1000.0     -1000.0     -1000.0    
      -1000.0     -1000.0     -1000.0     -1000.0     -1000.0     -1000.0     -1000.0     -1000.0     -1000.0     -1000.0    
      -1000.0     -1000.0     -1000.0     -1000.0     -1000.0     -1000.0     -1000.0     -1000.0     -1000.0     -1000.0    
      -1000.0     -1000.0     -1000.0     -1000.0     -1000.0     -1000.0     -1000.0     -1000.0     -1000.0     -1000.0    
  11   -1.000     -0.9939     -0.9879     -0.9818     -0.9758     -0.9697     -0.9636     -0.9576     -0.9515     -0.9455    
      -0.9394     -0.9333     -0.9273     -0.9212     -0.9152     -0.9091     -0.9030     -0.8970     -0.8909     -0.8848    
      -0.8788     -0.8727     -0.8667     -0.8606     -0.8545     -0.8485     -0.8424     -0.8364     -0.8303     -0.8242    
      -0.8182     -0.8121     -0.8061     -0.8000     -0.7939     -0.7879     -0.7818     -0.7758     -0.7697     -0.7636    
      -0.7576     -0.7515     -0.7455     -0.7394     -0.7333     -0.7273     -0.7212     -0.7152     -0.7091     -0.7030    
      -0.6970     -0.6909     -0.6848     -0.6788     -0.6727     -0.6667     -0.6606     -0.6545     -0.6485     -0.6424    
      -0.6364     -0.6303     -0.6242     -0.6182     -0.6121     -0.6061     -0.6000     -0.5939     -0.5879     -0.5818    
      -0.5758     -0.5697     -0.5636     -0.5576     -0.5515     -0.5455     -0.5394     -0.5333     -0.5273     -0.5212    
      -0.5152     -0.5091     -0.5030     -0.4970     -0.4909     -0.4848     -0.4788     -0.4727     -0.4667     -0.4606    
      -0.4545     -0.4485     -0.4424     -0.4364     -0.4303     -0.4242     -0.4182     -0.4121     -0.4061     -0.4000    
      -0.3939     -0.3879     -0.3818     -0.3758     -0.3697     -0.3636     -0.3576     -0.3515     -0.3455     -0.3394    
      -0.3333     -0.3273     -0.3212     -0.3152     -0.3091     -0.3030     -0.2970     -0.2909     -0.2848     -0.2788    
      -0.2727     -0.2667     -0.2606     -0.2545     -0.2485     -0.2424     -0.2364     -0.2303     -0.2242     -0.2182    
      -0.2121     -0.2061     -0.2000     -1000.0     -1000.0     -1000.0     -1000.0     -1000.0     -1000.0     -1000.0    
      -1000.0     -1000.0     -1000.0     -1000.0     -1000.0     -1000.0     -1000.0     -1000.0     -1000.0     -1000.0    
      -1000.0     -1000.0     -1000.0     -1000.0     -1000.0     -1000.0     -1000.0     -1000.0     -1000.0     -1000.0    
      -1000.0     -1000.0     -1000.0     -1000.0     -1000.0     -1000.0     -1000.0     -1000.0     -1000.0     -1000.0    
      -1000.0     -1000.0     -1000.0     -1000.0     -1000.0     -1000.0     -1000.0     -1000.0     -1000.0     -1000.0    
      -1000.0     -1000.0     -1000.0     -1000.0     -1000.0     -1000.0     -1000.0     -1000.0     -1000.0     -1000.0    
      -1000.0     -1000.0     -1000.0     -1000.0     -1000.0     -1000.0     -1000.0     -1000.0     -1000.0     -1000.0    
  12   -1.000     -0.9939     -0.9879     -0.9818     -0.9758     -0.9697     -0.9636     -0.9576     -0.9515     -0.9455    
      -0.9394     -0.9333     -0.9273     -0.9212     -0.9152     -0.9091     -0.9030     -0.8970     -0.8909     -0.8848    
      -0.8788     -0.8727     -0.8667     -0.8606     -0.8545     -0.8485     -0.8424     -0.8364     -0.8303     -0.8242    
      -0.8182     -0.8121     -0.8061     -0.8000     -0.7939     -0.7879     -0.7818     -0.7758     -0.7697     -0.7636    
      -0.7576     -0.7515     -0.7455     -0.7394     -0.7333     -0.7273     -0.7212     -0.7152     -0.7091     -0.7030    
      -0.6970     -0.6909     -0.6848     -0.6788     -0.6727     -0.6667     -0.6606     -0.6545     -0.6485     -0.6424    
      -0.6364     -0.6303     -0.6242     -0.6182     -0.6121     -0.6061     -0.6000     -0.5939     -0.5879     -0.5818    
      -0.5758     -0.5697     -0.5636     -0.5576     -0.5515     -0.5455     -0.5394     -0.5333     -0.5273     -0.5212    
      -0.5152     -0.5091     -0.5030     -0.4970     -0.4909     -0.4848     -0.4788     -0.4727     -0.4667     -0.4606    
      -0.4545     -0.4485     -0.4424     -0.4364     -0.4303     -0.4242     -0.4182     -0.4121     -0.4061     -0.4000    
      -0.3939     -0.3879     -0.3818     -0.3758     -0.3697     -0.3636     -0.3576     -0.3515     -0.3455     -0.3394    
      -0.3333     -0.3273     -0.3212     -0.3152     -0.3091     -0.3030     -0.2970     -0.2909     -0.2848     -0.2788    
      -0.2727     -0.2667     -0.2606     -0.2545     -0.2485     -0.2424     -0.2364     -0.2303     -0.2242     -0.2182    
      -0.2121     -0.2061     -0.2000     -1000.0     -1000.0     -1000.0     -1000.0     -1000.0     -1000.0     -1000.0    
      -1000.0     -1000.0     -1000.0     -1000.0     -1000.0     -1000.0     -1000.0     -1000.0     -1000.0     -1000.0    
      -1000.0     -1000.0     -1000.0     -1000.0     -1000.0     -1000.0     -1000.0     -1000.0     -1000.0     -1000.0    
      -1000.0     -1000.0     -1000.0     -1000.0     -1000.0     -1000.0     -1000.0     -1000.0     -1000.0     -1000.0    
      -1000.0     -1000.0     -1000.0     -1000.0     -1000.0     -1000.0     -1000.0     -1000.0     -1000.0     -1000.0    
      -1000.0     -1000.0     -1000.0     -1000.0     -1000.0     -1000.0     -1000.0     -1000.0     -1000.0     -1000.0    
      -1000.0     -1000.0     -1000.0     -1000.0     -1000.0     -1000.0     -1000.0     -1000.0     -1000.0     -1000.0    
  13   -1.000     -0.9939     -0.9879     -0.9818     -0.9758     -0.9697     -0.9636     -0.9576     -0.9515     -0.9455    
      -0.9394     -0.9333     -0.9273     -0.9212     -0.9152     -0.9091     -0.9030     -0.8970     -0.8909     -0.8848    
      -0.8788     -0.8727     -0.8667     -0.8606     -0.8545     -0.8485     -0.8424     -0.8364     -0.8303     -0.8242    
      -0.8182     -0.8121     -0.8061     -0.8000     -0.7939     -0.7879     -0.7818     -0.7758     -0.7697     -0.7636    
      -0.7576     -0.7515     -0.7455     -0.7394     -0.7333     -0.7273     -0.7212     -0.7152     -0.7091     -0.7030    
      -0.6970     -0.6909     -0.6848     -0.6788     -0.6727     -0.6667     -0.6606     -0.6545     -0.6485     -0.6424    
      -0.6364     -0.6303     -0.6242     -0.6182     -0.6121     -0.6061     -0.6000     -0.5939     -0.5879     -0.5818    
      -0.5758     -0.5697     -0.5636     -0.5576     -0.5515     -0.5455     -0.5394     -0.5333     -0.5273     -0.5212    
      -0.5152     -0.5091     -0.5030     -0.4970     -0.4909     -0.4848     -0.4788     -0.4727     -0.4667     -0.4606    
      -0.4545     -0.4485     -0.4424     -0.4364     -0.4303     -0.4242     -0.4182     -0.4121     -0.4061     -0.4000    
      -0.3939     -0.3879     -0.3818     -0.3758     -0.3697     -0.3636     -0.3576     -0.3515     -0.3455     -0.3394    
      -0.3333     -0.3273     -0.3212     -0.3152     -0.3091     -0.3030     -0.2970     -0.2909     -0.2848     -0.2788    
      -0.2727     -0.2667     -0.2606     -0.2545     -0.2485     -0.2424     -0.2364     -0.2303     -0.2242     -0.2182    
      -0.2121     -0.2061     -0.2000     -1000.0     -1000.0     -1000.0     -1000.0     -1000.0     -1000.0     -1000.0    
      -1000.0     -1000.0     -1000.0     -1000.0     -1000.0     -1000.0     -1000.0     -1000.0     -1000.0     -1000.0    
      -1000.0     -1000.0     -1000.0     -1000.0     -1000.0     -1000.0     -1000.0     -1000.0     -1000.0     -1000.0    
      -1000.0     -1000.0     -1000.0     -1000.0     -1000.0     -1000.0     -1000.0     -1000.0     -1000.0     -1000.0    
      -1000.0     -1000.0     -1000.0     -1000.0     -1000.0     -1000.0     -1000.0     -1000.0     -1000.0     -1000.0    
      -1000.0     -1000.0     -1000.0     -1000.0     -1000.0     -1000.0     -1000.0     -1000.0     -1000.0     -1000.0    
      -1000.0     -1000.0     -1000.0     -1000.0     -1000.0     -1000.0     -1000.0     -1000.0     -1000.0     -1000.0    
  14   -1.000     -0.9939     -0.9879     -0.9818     -0.9758     -0.9697     -0.9636     -0.9576     -0.9515     -0.9455    
      -0.9394     -0.9333     -0.9273     -0.9212     -0.9152     -0.9091     -0.9030     -0.8970     -0.8909     -0.8848    
      -0.8788     -0.8727     -0.8667     -0.8606     -0.8545     -0.8485     -0.8424     -0.8364     -0.8303     -0.8242    
      -0.8182     -0.8121     -0.8061     -0.8000     -0.7939     -0.7879     -0.7818     -0.7758     -0.7697     -0.7636    
      -0.7576     -0.7515     -0.7455     -0.7394     -0.7333     -0.7273     -0.7212     -0.7152     -0.7091     -0.7030    
      -0.6970     -0.6909     -0.6848     -0.6788     -0.6727     -0.6667     -0.6606     -0.6545     -0.6485     -0.6424    
      -0.6364     -0.6303     -0.6242     -0.6182     -0.6121     -0.6061     -0.6000     -0.5939     -0.5879     -0.5818    
      -0.5758     -0.5697     -0.5636     -0.5576     -0.5515     -0.5455     -0.5394     -0.5333     -0.5273     -0.5212    
      -0.5152     -0.5091     -0.5030     -0.4970     -0.4909     -0.4848     -0.4788     -0.4727     -0.4667     -0.4606    
      -0.4545     -0.4485     -0.4424     -0.4364     -0.4303     -0.4242     -0.4182     -0.4121     -0.4061     -0.4000    
      -0.3939     -0.3879     -0.3818     -0.3758     -0.3697     -0.3636     -0.3576     -0.3515     -0.3455     -0.3394    
      -0.3333     -0.3273     -0.3212     -0.3152     -0.3091     -0.3030     -0.2970     -0.2909     -0.2848     -0.2788    
      -0.2727     -0.2667     -0.2606     -0.2545     -0.2485     -0.2424     -0.2364     -0.2303     -0.2242     -0.2182    
      -0.2121     -0.2061     -0.2000     -1000.0     -1000.0     -1000.0     -1000.0     -1000.0     -1000.0     -1000.0    
      -1000.0     -1000.0     -1000.0     -1000.0     -1000.0     -1000.0     -1000.0     -1000.0     -1000.0     -1000.0    
      -1000.0     -1000.0     -1000.0     -1000.0     -1000.0     -1000.0     -1000.0     -1000.0     -1000.0     -1000.0    
      -1000.0     -1000.0     -1000.0     -1000.0     -1000.0     -1000.0     -1000.0     -1000.0     -1000.0     -1000.0    
      -1000.0     -1000.0     -1000.0     -1000.0     -1000.0     -1000.0     -1000.0     -1000.0     -1000.0     -1000.0    
      -1000.0     -1000.0     -1000.0     -1000.0     -1000.0     -1000.0     -1000.0     -1000.0     -1000.0     -1000.0    
      -1000.0     -1000.0     -1000.0     -1000.0     -1000.0     -1000.0     -1000.0     -1000.0     -1000.0     -1000.0    
  15   -1.000     -0.9939     -0.9879     -0.9818     -0.9758     -0.9697     -0.9636     -0.9576     -0.9515     -0.9455    
      -0.9394     -0.9333     -0.9273     -0.9212     -0.9152     -0.9091     -0.9030     -0.8970     -0.8909     -0.8848    
      -0.8788     -0.8727     -0.8667     -0.8606     -0.8545     -0.8485     -0.8424     -0.8364     -0.8303     -0.8242    
      -0.8182     -0.8121     -0.8061     -0.8000     -0.7939     -0.7879     -0.7818     -0.7758     -0.7697     -0.7636    
      -0.7576     -0.7515     -0.7455     -0.7394     -0.7333     -0.7273     -0.7212     -0.7152     -0.7091     -0.7030    
      -0.6970     -0.6909     -0.6848     -0.6788     -0.6727     -0.6667     -0.6606     -0.6545     -0.6485     -0.6424    
      -0.6364     -0.6303     -0.6242     -0.6182     -0.6121     -0.6061     -0.6000     -0.5939     -0.5879     -0.5818    
      -0.5758     -0.5697     -0.5636     -0.5576     -0.5515     -0.5455     -0.5394     -0.5333     -0.5273     -0.5212    
      -0.5152     -0.5091     -0.5030     -0.4970     -0.4909     -0.4848     -0.4788     -0.4727     -0.4667     -0.4606    
      -0.4545     -0.4485     -0.4424     -0.4364     -0.4303     -0.4242     -0.4182     -0.4121     -0.4061     -0.4000    
      -0.3939     -0.3879     -0.3818     -0.3758     -0.3697     -0.3636     -0.3576     -0.3515     -0.3455     -0.3394    
      -0.3333     -0.3273     -0.3212     -0.3152     -0.3091     -0.3030     -0.2970     -0.2909     -0.2848     -0.2788    
      -0.2727     -0.2667     -0.2606     -0.2545     -0.2485     -0.2424     -0.2364     -0.2303     -0.2242     -0.2182    
      -0.2121     -0.2061     -0.2000     -1000.0     -1000.0     -1000.0     -1000.0     -1000.0     -1000.0     -1000.0    
      -1000.0     -1000.0     -1000.0     -1000.0     -1000.0     -1000.0     -1000.0     -1000.0     -1000.0     -1000.0    
      -1000.0     -1000.0     -1000.0     -1000.0     -1000.0     -1000.0     -1000.0     -1000.0     -1000.0     -1000.0    
      -1000.0     -1000.0     -1000.0     -1000.0     -1000.0     -1000.0     -1000.0     -1000.0     -1000.0     -1000.0    
      -1000.0     -1000.0     -1000.0     -1000.0     -1000.0     -1000.0     -1000.0     -1000.0     -1000.0     -1000.0    
      -1000.0     -1000.0     -1000.0     -1000.0     -1000.0     -1000.0     -1000.0     -1000.0     -1000.0     -1000.0    
      -1000.0     -1000.0     -1000.0     -1000.0     -1000.0     -1000.0     -1000.0     -1000.0     -1000.0     -1000.0    
  16   -1.000     -0.9939     -0.9879     -0.9818     -0.9758     -0.9697     -0.9636     -0.9576     -0.9515     -0.9455    
      -0.9394     -0.9333     -0.9273     -0.9212     -0.9152     -0.9091     -0.9030     -0.8970     -0.8909     -0.8848    
      -0.8788     -0.8727     -0.8667     -0.8606     -0.8545     -0.8485     -0.8424     -0.8364     -0.8303     -0.8242    
      -0.8182     -0.8121     -0.8061     -0.8000     -0.7939     -0.7879     -0.7818     -0.7758     -0.7697     -0.7636    
      -0.7576     -0.7515     -0.7455     -0.7394     -0.7333     -0.7273     -0.7212     -0.7152     -0.7091     -0.7030    
      -0.6970     -0.6909     -0.6848     -0.6788     -0.6727     -0.6667     -0.6606     -0.6545     -0.6485     -0.6424    
      -0.6364     -0.6303     -0.6242     -0.6182     -0.6121     -0.6061     -0.6000     -0.5939     -0.5879     -0.5818    
      -0.5758     -0.5697     -0.5636     -0.5576     -0.5515     -0.5455     -0.5394     -0.5333     -0.5273     -0.5212    
      -0.5152     -0.5091     -0.5030     -0.4970     -0.4909     -0.4848     -0.4788     -0.4727     -0.4667     -0.4606    
      -0.4545     -0.4485     -0.4424     -0.4364     -0.4303     -0.4242     -0.4182     -0.4121     -0.4061     -0.4000    
      -0.3939     -0.3879     -0.3818     -0.3758     -0.3697     -0.3636     -0.3576     -0.3515     -0.3455     -0.3394    
      -0.3333     -0.3273     -0.3212     -0.3152     -0.3091     -0.3030     -0.2970     -0.2909     -0.2848     -0.2788    
      -0.2727     -0.2667     -0.2606     -0.2545     -0.2485     -0.2424     -0.2364     -0.2303     -0.2242     -0.2182    
      -0.2121     -0.2061     -0.2000     -1000.0     -1000.0     -1000.0     -1000.0     -1000.0     -1000.0     -1000.0    
      -1000.0     -1000.0     -1000.0     -1000.0     -1000.0     -1000.0     -1000.0     -1000.0     -1000.0     -1000.0    
      -1000.0     -1000.0     -1000.0     -1000.0     -1000.0     -1000.0     -1000.0     -1000.0     -1000.0     -1000.0    
      -1000.0     -1000.0     -1000.0     -1000.0     -1000.0     -1000.0     -1000.0     -1000.0     -1000.0     -1000.0    
      -1000.0     -1000.0     -1000.0     -1000.0     -1000.0     -1000.0     -1000.0     -1000.0     -1000.0     -1000.0    
      -1000.0     -1000.0     -1000.0     -1000.0     -1000.0     -1000.0     -1000.0     -1000.0     -1000.0     -1000.0    
      -1000.0     -1000.0     -1000.0     -1000.0     -1000.0     -1000.0     -1000.0     -1000.0     -1000.0     -1000.0    
  17   -1.000     -0.9939     -0.9879     -0.9818     -0.9758     -0.9697     -0.9636     -0.9576     -0.9515     -0.9455    
      -0.9394     -0.9333     -0.9273     -0.9212     -0.9152     -0.9091     -0.9030     -0.8970     -0.8909     -0.8848    
      -0.8788     -0.8727     -0.8667     -0.8606     -0.8545     -0.8485     -0.8424     -0.8364     -0.8303     -0.8242    
      -0.8182     -0.8121     -0.8061     -0.8000     -0.7939     -0.7879     -0.7818     -0.7758     -0.7697     -0.7636    
      -0.7576     -0.7515     -0.7455     -0.7394     -0.7333     -0.7273     -0.7212     -0.7152     -0.7091     -0.7030    
      -0.6970     -0.6909     -0.6848     -0.6788     -0.6727     -0.6667     -0.6606     -0.6545     -0.6485     -0.6424    
      -0.6364     -0.6303     -0.6242     -0.6182     -0.6121     -0.6061     -0.6000     -0.5939     -0.5879     -0.5818    
      -0.5758     -0.5697     -0.5636     -0.5576     -0.5515     -0.5455     -0.5394     -0.5333     -0.5273     -0.5212    
      -0.5152     -0.5091     -0.5030     -0.4970     -0.4909     -0.4848     -0.4788     -0.4727     -0.4667     -0.4606    
      -0.4545     -0.4485     -0.4424     -0.4364     -0.4303     -0.4242     -0.4182     -0.4121     -0.4061     -0.4000    
      -0.3939     -0.3879     -0.3818     -0.3758     -0.3697     -0.3636     -0.3576     -0.3515     -0.3455     -0.3394    
      -0.3333     -0.3273     -0.3212     -0.3152     -0.3091     -0.3030     -0.2970     -0.2909     -0.2848     -0.2788    
      -0.2727     -0.2667     -0.2606     -0.2545     -0.2485     -0.2424     -0.2364     -0.2303     -0.2242     -0.2182    
      -0.2121     -0.2061     -0.2000     -1000.0     -1000.0     -1000.0     -1000.0     -1000.0     -1000.0     -1000.0    
      -1000.0     -1000.0     -1000.0     -1000.0     -1000.0     -1000.0     -1000.0     -1000.0     -1000.0     -1000.0    
      -1000.0     -1000.0     -1000.0     -1000.0     -1000.0     -1000.0     -1000.0     -1000.0     -1000.0     -1000.0    
      -1000.0     -1000.0     -1000.0     -1000.0     -1000.0     -1000.0     -1000.0     -1000.0     -1000.0     -1000.0    
      -1000.0     -1000.0     -1000.0     -1000.0     -1000.0     -1000.0     -1000.0     -1000.0     -1000.0     -1000.0    
      -1000.0     -1000.0     -1000.0     -1000.0     -1000.0     -1000.0     -1000.0     -1000.0     -1000.0     -1000.0    
      -1000.0     -1000.0     -1000.0     -1000.0     -1000.0     -1000.0     -1000.0     -1000.0     -1000.0     -1000.0    
  18   -1.000     -0.9939     -0.9879     -0.9818     -0.9758     -0.9697     -0.9636     -0.9576     -0.9515     -0.9455    
      -0.9394     -0.9333     -0.9273     -0.9212     -0.9152     -0.9091     -0.9030     -0.8970     -0.8909     -0.8848    
      -0.8788     -0.8727     -0.8667     -0.8606     -0.8545     -0.8485     -0.8424     -0.8364     -0.8303     -0.8242    
      -0.8182     -0.8121     -0.8061     -0.8000     -0.7939     -0.7879     -0.7818     -0.7758     -0.7697     -0.7636    
      -0.7576     -0.7515     -0.7455     -0.7394     -0.7333     -0.7273     -0.7212     -0.7152     -0.7091     -0.7030    
      -0.6970     -0.6909     -0.6848     -0.6788     -0.6727     -0.6667     -0.6606     -0.6545     -0.6485     -0.6424    
      -0.6364     -0.6303     -0.6242     -0.6182     -0.6121     -0.6061     -0.6000     -0.5939     -0.5879     -0.5818    
      -0.5758     -0.5697     -0.5636     -0.5576     -0.5515     -0.5455     -0.5394     -0.5333     -0.5273     -0.5212    
      -0.5152     -0.5091     -0.5030     -0.4970     -0.4909     -0.4848     -0.4788     -0.4727     -0.4667     -0.4606    
      -0.4545     -0.4485     -0.4424     -0.4364     -0.4303     -0.4242     -0.4182     -0.4121     -0.4061     -0.4000    
      -0.3939     -0.3879     -0.3818     -0.3758     -0.3697     -0.3636     -0.3576     -0.3515     -0.3455     -0.3394    
      -0.3333     -0.3273     -0.3212     -0.3152     -0.3091     -0.3030     -0.2970     -0.2909     -0.2848     -0.2788    
      -0.2727     -0.2667     -0.2606     -0.2545     -0.2485     -0.2424     -0.2364     -0.2303     -0.2242     -0.2182    
      -0.2121     -0.2061     -0.2000     -1000.0     -1000.0     -1000.0     -1000.0     -1000.0     -1000.0     -1000.0    
      -1000.0     -1000.0     -1000.0     -1000.0     -1000.0     -1000.0     -1000.0     -1000.0     -1000.0     -1000.0    
      -1000.0     -1000.0     -1000.0     -1000.0     -1000.0     -1000.0     -1000.0     -1000.0     -1000.0     -1000.0    
      -1000.0     -1000.0     -1000.0     -1000.0     -1000.0     -1000.0     -1000.0     -1000.0     -1000.0     -1000.0    
      -1000.0     -1000.0     -1000.0     -1000.0     -1000.0     -1000.0     -1000.0     -1000.0     -1000.0     -1000.0    
      -1000.0     -1000.0     -1000.0     -1000.0     -1000.0     -1000.0     -1000.0     -1000.0     -1000.0     -1000.0    
      -1000.0     -1000.0     -1000.0     -1000.0     -1000.0     -1000.0     -1000.0     -1000.0     -1000.0     -1000.0    
  19   -1.000     -0.9939     -0.9879     -0.9818     -0.9758     -0.9697     -0.9636     -0.9576     -0.9515     -0.9455    
      -0.9394     -0.9333     -0.9273     -0.9212     -0.9152     -0.9091     -0.9030     -0.8970     -0.8909     -0.8848    
      -0.8788     -0.8727     -0.8667     -0.8606     -0.8545     -0.8485     -0.8424     -0.8364     -0.8303     -0.8242    
      -0.8182     -0.8121     -0.8061     -0.8000     -0.7939     -0.7879     -0.7818     -0.7758     -0.7697     -0.7636    
      -0.7576     -0.7515     -0.7455     -0.7394     -0.7333     -0.7273     -0.7212     -0.7152     -0.7091     -0.7030    
      -0.6970     -0.6909     -0.6848     -0.6788     -0.6727     -0.6667     -0.6606     -0.6545     -0.6485     -0.6424    
      -0.6364     -0.6303     -0.6242     -0.6182     -0.6121     -0.6061     -0.6000     -0.5939     -0.5879     -0.5818    
      -0.5758     -0.5697     -0.5636     -0.5576     -0.5515     -0.5455     -0.5394     -0.5333     -0.5273     -0.5212    
      -0.5152     -0.5091     -0.5030     -0.4970     -0.4909     -0.4848     -0.4788     -0.4727     -0.4667     -0.4606    
      -0.4545     -0.4485     -0.4424     -0.4364     -0.4303     -0.4242     -0.4182     -0.4121     -0.4061     -0.4000    
      -0.3939     -0.3879     -0.3818     -0.3758     -0.3697     -0.3636     -0.3576     -0.3515     -0.3455     -0.3394    
      -0.3333     -0.3273     -0.3212     -0.3152     -0.3091     -0.3030     -0.2970     -0.2909     -0.2848     -0.2788    
      -0.2727     -0.2667     -0.2606     -0.2545     -0.2485     -0.2424     -0.2364     -0.2303     -0.2242     -0.2182    
      -0.2121     -0.2061     -0.2000     -1000.0     -1000.0     -1000.0     -1000.0     -1000.0     -1000.0     -1000.0    
      -1000.0     -1000.0     -1000.0     -1000.0     -1000.0     -1000.0     -1000.0     -1000.0     -1000.0     -1000.0    
      -1000.0     -1000.0     -1000.0     -1000.0     -1000.0     -1000.0     -1000.0     -1000.0     -1000.0     -1000.0    
      -1000.0     -1000.0     -1000.0     -1000.0     -1000.0     -1000.0     -1000.0     -1000.0     -1000.0     -1000.0    
      -1000.0     -1000.0     -1000.0     -1000.0     -1000.0     -1000.0     -1000.0     -1000.0     -1000.0     -1000.0    
      -1000.0     -1000.0     -1000.0     -1000.0     -1000.0     -1000.0     -1000.0     -1000.0     -1000.0     -1000.0    
      -1000.0     -1000.0     -1000.0     -1000.0     -1000.0     -1000.0     -1000.0     -1000.0     -1000.0     -1000.0    
  20   -1.000     -0.9939     -0.9879     -0.9818     -0.9758     -0.9697     -0.9636     -0.9576     -0.9515     -0.9455    
      -0.9394     -0.9333     -0.9273     -0.9212     -0.9152     -0.9091     -0.9030     -0.8970     -0.8909     -0.8848    
      -0.8788     -0.8727     -0.8667     -0.8606     -0.8545     -0.8485     -0.8424     -0.8364     -0.8303     -0.8242    
      -0.8182     -0.8121     -0.8061     -0.8000     -0.7939     -0.7879     -0.7818     -0.7758     -0.7697     -0.7636    
      -0.7576     -0.7515     -0.7455     -0.7394     -0.7333     -0.7273     -0.7212     -0.7152     -0.7091     -0.7030    
      -0.6970     -0.6909     -0.6848     -0.6788     -0.6727     -0.6667     -0.6606     -0.6545     -0.6485     -0.6424    
      -0.6364     -0.6303     -0.6242     -0.6182     -0.6121     -0.6061     -0.6000     -0.5939     -0.5879     -0.5818    
      -0.5758     -0.5697     -0.5636     -0.5576     -0.5515     -0.5455     -0.5394     -0.5333     -0.5273     -0.5212    
      -0.5152     -0.5091     -0.5030     -0.4970     -0.4909     -0.4848     -0.4788     -0.4727     -0.4667     -0.4606    
      -0.4545     -0.4485     -0.4424     -0.4364     -0.4303     -0.4242     -0.4182     -0.4121     -0.4061     -0.4000    
      -0.3939     -0.3879     -0.3818     -0.3758     -0.3697     -0.3636     -0.3576     -0.3515     -0.3455     -0.3394    
      -0.3333     -0.3273     -0.3212     -0.3152     -0.3091     -0.3030     -0.2970     -0.2909     -0.2848     -0.2788    
      -0.2727     -0.2667     -0.2606     -0.2545     -0.2485     -0.2424     -0.2364     -0.2303     -0.2242     -0.2182    
      -0.2121     -0.2061     -0.2000     -1000.0     -1000.0     -1000.0     -1000.0     -1000.0     -1000.0     -1000.0    
      -1000.0     -1000.0     -1000.0     -1000.0     -1000.0     -1000.0     -1000.0     -1000.0     -1000.0     -1000.0    
      -1000.0     -1000.0     -1000.0     -1000.0     -1000.0     -1000.0     -1000.0     -1000.0     -1000.0     -1000.0    
      -1000.0     -1000.0     -1000.0     -1000.0     -1000.0     -1000.0     -1000.0     -1000.0     -1000.0     -1000.0    
      -1000.0     -1000.0     -1000.0     -1000.0     -1000.0     -1000.0     -1000.0     -1000.0     -1000.0     -1000.0    
      -1000.0     -1000.0     -1000.0     -1000.0     -1000.0     -1000.0     -1000.0     -1000.0     -1000.0     -1000.0    
      -1000.0     -1000.0     -1000.0     -1000.0     -1000.0     -1000.0     -1000.0     -1000.0     -1000.0     -1000.0    
  21   -1.000     -0.9939     -0.9879     -0.9818     -0.9758     -0.9697     -0.9636     -0.9576     -0.9515     -0.9455    
      -0.9394     -0.9333     -0.9273     -0.9212     -0.9152     -0.9091     -0.9030     -0.8970     -0.8909     -0.8848    
      -0.8788     -0.8727     -0.8667     -0.8606     -0.8545     -0.8485     -0.8424     -0.8364     -0.8303     -0.8242    
      -0.8182     -0.8121     -0.8061     -0.8000     -0.7939     -0.7879     -0.7818     -0.7758     -0.7697     -0.7636    
      -0.7576     -0.7515     -0.7455     -0.7394     -0.7333     -0.7273     -0.7212     -0.7152     -0.7091     -0.7030    
      -0.6970     -0.6909     -0.6848     -0.6788     -0.6727     -0.6667     -0.6606     -0.6545     -0.6485     -0.6424    
      -0.6364     -0.6303     -0.6242     -0.6182     -0.6121     -0.6061     -0.6000     -0.5939     -0.5879     -0.5818    
      -0.5758     -0.5697     -0.5636     -0.5576     -0.5515     -0.5455     -0.5394     -0.5333     -0.5273     -0.5212    
      -0.5152     -0.5091     -0.5030     -0.4970     -0.4909     -0.4848     -0.4788     -0.4727     -0.4667     -0.4606    
      -0.4545     -0.4485     -0.4424     -0.4364     -0.4303     -0.4242     -0.4182     -0.4121     -0.4061     -0.4000    
      -0.3939     -0.3879     -0.3818     -0.3758     -0.3697     -0.3636     -0.3576     -0.3515     -0.3455     -0.3394    
      -0.3333     -0.3273     -0.3212     -0.3152     -0.3091     -0.3030     -0.2970     -0.2909     -0.2848     -0.2788    
      -0.2727     -0.2667     -0.2606     -0.2545     -0.2485     -0.2424     -0.2364     -0.2303     -0.2242     -0.2182    
      -0.2121     -0.2061     -0.2000     -1000.0     -1000.0     -1000.0     -1000.0     -1000.0     -1000.0     -1000.0    
      -1000.0     -1000.0     -1000.0     -1000.0     -1000.0     -1000.0     -1000.0     -1000.0     -1000.0     -1000.0    
      -1000.0     -1000.0     -1000.0     -1000.0     -1000.0     -1000.0     -1000.0     -1000.0     -1000.0     -1000.0    
      -1000.0     -1000.0     -1000.0     -1000.0     -1000.0     -1000.0     -1000.0     -1000.0     -1000.0     -1000.0    
      -1000.0     -1000.0     -1000.0     -1000.0     -1000.0     -1000.0     -1000.0     -1000.0     -1000.0     -1000.0    
      -1000.0     -1000.0     -1000.0     -1000.0     -1000.0     -1000.0     -1000.0     -1000.0     -1000.0     -1000.0    
      -1000.0     -1000.0     -1000.0     -1000.0     -1000.0     -1000.0     -1000.0     -1000.0     -1000.0     -1000.0    
  22   -1.000     -0.9939     -0.9879     -0.9818     -0.9758     -0.9697     -0.9636     -0.9576     -0.9515     -0.9455    
      -0.9394     -0.9333     -0.9273     -0.9212     -0.9152     -0.9091     -0.9030     -0.8970     -0.8909     -0.8848    
      -0.8788     -0.8727     -0.8667     -0.8606     -0.8545     -0.8485     -0.8424     -0.8364     -0.8303     -0.8242    
      -0.8182     -0.8121     -0.8061     -0.8000     -0.7939     -0.7879     -0.7818     -0.7758     -0.7697     -0.7636    
      -0.7576     -0.7515     -0.7455     -0.7394     -0.7333     -0.7273     -0.7212     -0.7152     -0.7091     -0.7030    
      -0.6970     -0.6909     -0.6848     -0.6788     -0.6727     -0.6667     -0.6606     -0.6545     -0.6485     -0.6424    
      -0.6364     -0.6303     -0.6242     -0.6182     -0.6121     -0.6061     -0.6000     -0.5939     -0.5879     -0.5818    
      -0.5758     -0.5697     -0.5636     -0.5576     -0.5515     -0.5455     -0.5394     -0.5333     -0.5273     -0.5212    
      -0.5152     -0.5091     -0.5030     -0.4970     -0.4909     -0.4848     -0.4788     -0.4727     -0.4667     -0.4606    
      -0.4545     -0.4485     -0.4424     -0.4364     -0.4303     -0.4242     -0.4182     -0.4121     -0.4061     -0.4000    
      -0.3939     -0.3879     -0.3818     -0.3758     -0.3697     -0.3636     -0.3576     -0.3515     -0.3455     -0.3394    
      -0.3333     -0.3273     -0.3212     -0.3152     -0.3091     -0.3030     -0.2970     -0.2909     -0.2848     -0.2788    
      -0.2727     -0.2667     -0.2606     -0.2545     -0.2485     -0.2424     -0.2364     -0.2303     -0.2242     -0.2182    
      -0.2121     -0.2061     -0.2000     -1000.0     -1000.0     -1000.0     -1000.0     -1000.0     -1000.0     -1000.0    
      -1000.0     -1000.0     -1000.0     -1000.0     -1000.0     -1000.0     -1000.0     -1000.0     -1000.0     -1000.0    
      -1000.0     -1000.0     -1000.0     -1000.0     -1000.0     -1000.0     -1000.0     -1000.0     -1000.0     -1000.0    
      -1000.0     -1000.0     -1000.0     -1000.0     -1000.0     -1000.0     -1000.0     -1000.0     -1000.0     -1000.0    
      -1000.0     -1000.0     -1000.0     -1000.0     -1000.0     -1000.0     -1000.0     -1000.0     -1000.0     -1000.0    
      -1000.0     -1000.0     -1000.0     -1000.0     -1000.0     -1000.0     -1000.0     -1000.0     -1000.0     -1000.0    
      -1000.0     -1000.0     -1000.0     -1000.0     -1000.0     -1000.0     -1000.0     -1000.0     -1000.0     -1000.0    
  23   -1.000     -0.9939     -0.9879     -0.9818     -0.9758     -0.9697     -0.9636     -0.9576     -0.9515     -0.9455    
      -0.9394     -0.9333     -0.9273     -0.9212     -0.9152     -0.9091     -0.9030     -0.8970     -0.8909     -0.8848    
      -0.8788     -0.8727     -0.8667     -0.8606     -0.8545     -0.8485     -0.8424     -0.8364     -0.8303     -0.8242    
      -0.8182     -0.8121     -0.8061     -0.8000     -0.7939     -0.7879     -0.7818     -0.7758     -0.7697     -0.7636    
      -0.7576     -0.7515     -0.7455     -0.7394     -0.7333     -0.7273     -0.7212     -0.7152     -0.7091     -0.7030    
      -0.6970     -0.6909     -0.6848     -0.6788     -0.6727     -0.6667     -0.6606     -0.6545     -0.6485     -0.6424    
      -0.6364     -0.6303     -0.6242     -0.6182     -0.6121     -0.6061     -0.6000     -0.5939     -0.5879     -0.5818    
      -0.5758     -0.5697     -0.5636     -0.5576     -0.5515     -0.5455     -0.5394     -0.5333     -0.5273     -0.5212    
      -0.5152     -0.5091     -0.5030     -0.4970     -0.4909     -0.4848     -0.4788     -0.4727     -0.4667     -0.4606    
      -0.4545     -0.4485     -0.4424     -0.4364     -0.4303     -0.4242     -0.4182     -0.4121     -0.4061     -0.4000    
      -0.3939     -0.3879     -0.3818     -0.3758     -0.3697     -0.3636     -0.3576     -0.3515     -0.3455     -0.3394    
      -0.3333     -0.3273     -0.3212     -0.3152     -0.3091     -0.3030     -0.2970     -0.2909     -0.2848     -0.2788    
      -0.2727     -0.2667     -0.2606     -0.2545     -0.2485     -0.2424     -0.2364     -0.2303     -0.2242     -0.2182    
      -0.2121     -0.2061     -0.2000     -1000.0     -1000.0     -1000.0     -1000.0     -1000.0     -1000.0     -1000.0    
      -1000.0     -1000.0     -1000.0     -1000.0     -1000.0     -1000.0     -1000.0     -1000.0     -1000.0     -1000.0    
      -1000.0     -1000.0     -1000.0     -1000.0     -1000.0     -1000.0     -1000.0     -1000.0     -1000.0     -1000.0    
      -1000.0     -1000.0     -1000.0     -1000.0     -1000.0     -1000.0     -1000.0     -1000.0     -1000.0     -1000.0    
      -1000.0     -1000.0     -1000.0     -1000.0     -1000.0     -1000.0     -1000.0     -1000.0     -1000.0     -1000.0    
      -1000.0     -1000.0     -1000.0     -1000.0     -1000.0     -1000.0     -1000.0     -1000.0     -1000.0     -1000.0    
      -1000.0     -1000.0     -1000.0     -1000.0     -1000.0     -1000.0     -1000.0     -1000.0     -1000.0     -1000.0    
  24   -1.000     -0.9939     -0.9879     -0.9818     -0.9758     -0.9697     -0.9636     -0.9576     -0.9515     -0.9455    
      -0.9394     -0.9333     -0.9273     -0.9212     -0.9152     -0.9091     -0.9030     -0.8970     -0.8909     -0.8848    
      -0.8788     -0.8727     -0.8667     -0.8606     -0.8545     -0.8485     -0.8424     -0.8364     -0.8303     -0.8242    
      -0.8182     -0.8121     -0.8061     -0.8000     -0.7939     -0.7879     -0.7818     -0.7758     -0.7697     -0.7636    
      -0.7576     -0.7515     -0.7455     -0.7394     -0.7333     -0.7273     -0.7212     -0.7152     -0.7091     -0.7030    
      -0.6970     -0.6909     -0.6848     -0.6788     -0.6727     -0.6667     -0.6606     -0.6545     -0.6485     -0.6424    
      -0.6364     -0.6303     -0.6242     -0.6182     -0.6121     -0.6061     -0.6000     -0.5939     -0.5879     -0.5818    
      -0.5758     -0.5697     -0.5636     -0.5576     -0.5515     -0.5455     -0.5394     -0.5333     -0.5273     -0.5212    
      -0.5152     -0.5091     -0.5030     -0.4970     -0.4909     -0.4848     -0.4788     -0.4727     -0.4667     -0.4606    
      -0.4545     -0.4485     -0.4424     -0.4364     -0.4303     -0.4242     -0.4182     -0.4121     -0.4061     -0.4000    
      -0.3939     -0.3879     -0.3818     -0.3758     -0.3697     -0.3636     -0.3576     -0.3515     -0.3455     -0.3394    
      -0.3333     -0.3273     -0.3212     -0.3152     -0.3091     -0.3030     -0.2970     -0.2909     -0.2848     -0.2788    
      -0.2727     -0.2667     -0.2606     -0.2545     -0.2485     -0.2424     -0.2364     -0.2303     -0.2242     -0.2182    
      -0.2121     -0.2061     -0.2000     -1000.0     -1000.0     -1000.0     -1000.0     -1000.0     -1000.0     -1000.0    
      -1000.0     -1000.0     -1000.0     -1000.0     -1000.0     -1000.0     -1000.0     -1000.0     -1000.0     -1000.0    
      -1000.0     -1000.0     -1000.0     -1000.0     -1000.0     -1000.0     -1000.0     -1000.0     -1000.0     -1000.0    
      -1000.0     -1000.0     -1000.0     -1000.0     -1000.0     -1000.0     -1000.0     -1000.0     -1000.0     -1000.0    
      -1000.0     -1000.0     -1000.0     -1000.0     -1000.0     -1000.0     -1000.0     -1000.0     -1000.0     -1000.0    
      -1000.0     -1000.0     -1000.0     -1000.0     -1000.0     -1000.0     -1000.0     -1000.0     -1000.0     -1000.0    
      -1000.0     -1000.0     -1000.0     -1000.0     -1000.0     -1000.0     -1000.0     -1000.0     -1000.0     -1000.0    
  25   -1.000     -0.9939     -0.9879     -0.9818     -0.9758     -0.9697     -0.9636     -0.9576     -0.9515     -0.9455    
      -0.9394     -0.9333     -0.9273     -0.9212     -0.9152     -0.9091     -0.9030     -0.8970     -0.8909     -0.8848    
      -0.8788     -0.8727     -0.8667     -0.8606     -0.8545     -0.8485     -0.8424     -0.8364     -0.8303     -0.8242    
      -0.8182     -0.8121     -0.8061     -0.8000     -0.7939     -0.7879     -0.7818     -0.7758     -0.7697     -0.7636    
      -0.7576     -0.7515     -0.7455     -0.7394     -0.7333     -0.7273     -0.7212     -0.7152     -0.7091     -0.7030    
      -0.6970     -0.6909     -0.6848     -0.6788     -0.6727     -0.6667     -0.6606     -0.6545     -0.6485     -0.6424    
      -0.6364     -0.6303     -0.6242     -0.6182     -0.6121     -0.6061     -0.6000     -0.5939     -0.5879     -0.5818    
      -0.5758     -0.5697     -0.5636     -0.5576     -0.5515     -0.5455     -0.5394     -0.5333     -0.5273     -0.5212    
      -0.5152     -0.5091     -0.5030     -0.4970     -0.4909     -0.4848     -0.4788     -0.4727     -0.4667     -0.4606    
      -0.4545     -0.4485     -0.4424     -0.4364     -0.4303     -0.4242     -0.4182     -0.4121     -0.4061     -0.4000    
      -0.3939     -0.3879     -0.3818     -0.3758     -0.3697     -0.3636     -0.3576     -0.3515     -0.3455     -0.3394    
      -0.3333     -0.3273     -0.3212     -0.3152     -0.3091     -0.3030     -0.2970     -0.2909     -0.2848     -0.2788    
      -0.2727     -0.2667     -0.2606     -0.2545     -0.2485     -0.2424     -0.2364     -0.2303     -0.2242     -0.2182    
      -0.2121     -0.2061     -0.2000     -1000.0     -1000.0     -1000.0     -1000.0     -1000.0     -1000.0     -1000.0    
      -1000.0     -1000.0     -1000.0     -1000.0     -1000.0     -1000.0     -1000.0     -1000.0     -1000.0     -1000.0    
      -1000.0     -1000.0     -1000.0     -1000.0     -1000.0     -1000.0     -1000.0     -1000.0     -1000.0     -1000.0    
      -1000.0     -1000.0     -1000.0     -1000.0     -1000.0     -1000.0     -1000.0     -1000.0     -1000.0     -1000.0    
      -1000.0     -1000.0     -1000.0     -1000.0     -1000.0     -1000.0     -1000.0     -1000.0     -1000.0     -1000.0    
      -1000.0     -1000.0     -1000.0     -1000.0     -1000.0     -1000.0     -1000.0     -1000.0     -1000.0     -1000.0    
      -1000.0     -1000.0     -1000.0     -1000.0     -1000.0     -1000.0     -1000.0     -1000.0     -1000.0     -1000.0    
  26   -1.000     -0.9939     -0.9879     -0.9818     -0.9758     -0.9697     -0.9636     -0.9576     -0.9515     -0.9455    
      -0.9394     -0.9333     -0.9273     -0.9212     -0.9152     -0.9091     -0.9030     -0.8970     -0.8909     -0.8848    
      -0.8788     -0.8727     -0.8667     -0.8606     -0.8545     -0.8485     -0.8424     -0.8364     -0.8303     -0.8242    
      -0.8182     -0.8121     -0.8061     -0.8000     -0.7939     -0.7879     -0.7818     -0.7758     -0.7697     -0.7636    
      -0.7576     -0.7515     -0.7455     -0.7394     -0.7333     -0.7273     -0.7212     -0.7152     -0.7091     -0.7030    
      -0.6970     -0.6909     -0.6848     -0.6788     -0.6727     -0.6667     -0.6606     -0.6545     -0.6485     -0.6424    
      -0.6364     -0.6303     -0.6242     -0.6182     -0.6121     -0.6061     -0.6000     -0.5939     -0.5879     -0.5818    
      -0.5758     -0.5697     -0.5636     -0.5576     -0.5515     -0.5455     -0.5394     -0.5333     -0.5273     -0.5212    
      -0.5152     -0.5091     -0.5030     -0.4970     -0.4909     -0.4848     -0.4788     -0.4727     -0.4667     -0.4606    
      -0.4545     -0.4485     -0.4424     -0.4364     -0.4303     -0.4242     -0.4182     -0.4121     -0.4061     -0.4000    
      -0.3939     -0.3879     -0.3818     -0.3758     -0.3697     -0.3636     -0.3576     -0.3515     -0.3455     -0.3394    
      -0.3333     -0.3273     -0.3212     -0.3152     -0.3091     -0.3030     -0.2970     -0.2909     -0.2848     -0.2788    
      -0.2727     -0.2667     -0.2606     -0.2545     -0.2485     -0.2424     -0.2364     -0.2303     -0.2242     -0.2182    
      -0.2121     -0.2061     -0.2000     -1000.0     -1000.0     -1000.0     -1000.0     -1000.0     -1000.0     -1000.0    
      -1000.0     -1000.0     -1000.0     -1000.0     -1000.0     -1000.0     -1000.0     -1000.0     -1000.0     -1000.0    
      -1000.0     -1000.0     -1000.0     -1000.0     -1000.0     -1000.0     -1000.0     -1000.0     -1000.0     -1000.0    
      -1000.0     -1000.0     -1000.0     -1000.0     -1000.0     -1000.0     -1000.0     -1000.0     -1000.0     -1000.0    
      -1000.0     -1000.0     -1000.0     -1000.0     -1000.0     -1000.0     -1000.0     -1000.0     -1000.0     -1000.0    
      -1000.0     -1000.0     -1000.0     -1000.0     -1000.0     -1000.0     -1000.0     -1000.0     -1000.0     -1000.0    
      -1000.0     -1000.0     -1000.0     -1000.0     -1000.0     -1000.0     -1000.0     -1000.0     -1000.0     -1000.0    
  27   -1.000     -0.9939     -0.9879     -0.9818     -0.9758     -0.9697     -0.9636     -0.9576     -0.9515     -0.9455    
      -0.9394     -0.9333     -0.9273     -0.9212     -0.9152     -0.9091     -0.9030     -0.8970     -0.8909     -0.8848    
      -0.8788     -0.8727     -0.8667     -0.8606     -0.8545     -0.8485     -0.8424     -0.8364     -0.8303     -0.8242    
      -0.8182     -0.8121     -0.8061     -0.8000     -0.7939     -0.7879     -0.7818     -0.7758     -0.7697     -0.7636    
      -0.7576     -0.7515     -0.7455     -0.7394     -0.7333     -0.7273     -0.7212     -0.7152     -0.7091     -0.7030    
      -0.6970     -0.6909     -0.6848     -0.6788     -0.6727     -0.6667     -0.6606     -0.6545     -0.6485     -0.6424    
      -0.6364     -0.6303     -0.6242     -0.6182     -0.6121     -0.6061     -0.6000     -0.5939     -0.5879     -0.5818    
      -0.5758     -0.5697     -0.5636     -0.5576     -0.5515     -0.5455     -0.5394     -0.5333     -0.5273     -0.5212    
      -0.5152     -0.5091     -0.5030     -0.4970     -0.4909     -0.4848     -0.4788     -0.4727     -0.4667     -0.4606    
      -0.4545     -0.4485     -0.4424     -0.4364     -0.4303     -0.4242     -0.4182     -0.4121     -0.4061     -0.4000    
      -0.3939     -0.3879     -0.3818     -0.3758     -0.3697     -0.3636     -0.3576     -0.3515     -0.3455     -0.3394    
      -0.3333     -0.3273     -0.3212     -0.3152     -0.3091     -0.3030     -0.2970     -0.2909     -0.2848     -0.2788    
      -0.2727     -0.2667     -0.2606     -0.2545     -0.2485     -0.2424     -0.2364     -0.2303     -0.2242     -0.2182    
      -0.2121     -0.2061     -0.2000     -1000.0     -1000.0     -1000.0     -1000.0     -1000.0     -1000.0     -1000.0    
      -1000.0     -1000.0     -1000.0     -1000.0     -1000.0     -1000.0     -1000.0     -1000.0     -1000.0     -1000.0    
      -1000.0     -1000.0     -1000.0     -1000.0     -1000.0     -1000.0     -1000.0     -1000.0     -1000.0     -1000.0    
      -1000.0     -1000.0     -1000.0     -1000.0     -1000.0     -1000.0     -1000.0     -1000.0     -1000.0     -1000.0    
      -1000.0     -1000.0     -1000.0     -1000.0     -1000.0     -1000.0     -1000.0     -1000.0     -1000.0     -1000.0    
      -1000.0     -1000.0     -1000.0     -1000.0     -1000.0     -1000.0     -1000.0     -1000.0     -1000.0     -1000.0    
      -1000.0     -1000.0     -1000.0     -1000.0     -1000.0     -1000.0     -1000.0     -1000.0     -1000.0     -1000.0    
  28   -1.000     -0.9939     -0.9879     -0.9818     -0.9758     -0.9697     -0.9636     -0.9576     -0.9515     -0.9455    
      -0.9394     -0.9333     -0.9273     -0.9212     -0.9152     -0.9091     -0.9030     -0.8970     -0.8909     -0.8848    
      -0.8788     -0.8727     -0.8667     -0.8606     -0.8545     -0.8485     -0.8424     -0.8364     -0.8303     -0.8242    
      -0.8182     -0.8121     -0.8061     -0.8000     -0.7939     -0.7879     -0.7818     -0.7758     -0.7697     -0.7636    
      -0.7576     -0.7515     -0.7455     -0.7394     -0.7333     -0.7273     -0.7212     -0.7152     -0.7091     -0.7030    
      -0.6970     -0.6909     -0.6848     -0.6788     -0.6727     -0.6667     -0.6606     -0.6545     -0.6485     -0.6424    
      -0.6364     -0.6303     -0.6242     -0.6182     -0.6121     -0.6061     -0.6000     -0.5939     -0.5879     -0.5818    
[...]
      -1000.0     -1000.0     -1000.0     -1000.0     -1000.0     -1000.0     -1000.0     -1000.0     -1000.0     -1000.0    
      -1000.0     -1000.0     -1000.0     -1000.0     -1000.0     -1000.0     -1000.0     -1000.0     -1000.0     -1000.0    
      -1000.0     -1000.0     -1000.0     -1000.0     -1000.0     -1000.0     -1000.0     -1000.0     -1000.0     -1000.0    
      -1000.0     -1000.0     -1000.0     -1000.0     -1000.0     -1000.0     -1000.0     -1000.0     -1000.0     -1000.0    
      -1000.0     -1000.0     -1000.0     -1000.0     -1000.0     -1000.0     -1000.0     -1000.0     -1000.0     -1000.0    
 125   -1.000     -0.9939     -0.9879     -0.9818     -0.9758     -0.9697     -0.9636     -0.9576     -0.9515     -0.9455    
      -0.9394     -0.9333     -0.9273     -0.9212     -0.9152     -0.9091     -0.9030     -0.8970     -0.8909     -0.8848    
      -0.8788     -0.8727     -0.8667     -0.8606     -0.8545     -0.8485     -0.8424     -0.8364     -0.8303     -0.8242    
      -0.8182     -0.8121     -0.8061     -0.8000     -0.7939     -0.7879     -0.7818     -0.7758     -0.7697     -0.7636    
      -0.7576     -0.7515     -0.7455     -0.7394     -0.7333     -0.7273     -0.7212     -0.7152     -0.7091     -0.7030    
      -0.6970     -0.6909     -0.6848     -0.6788     -0.6727     -0.6667     -0.6606     -0.6545     -0.6485     -0.6424    
      -0.6364     -0.6303     -0.6242     -0.6182     -0.6121     -0.6061     -0.6000     -0.5939     -0.5879     -0.5818    
      -0.5758     -0.5697     -0.5636     -0.5576     -0.5515     -0.5455     -0.5394     -0.5333     -0.5273     -0.5212    
      -0.5152     -0.5091     -0.5030     -0.4970     -0.4909     -0.4848     -0.4788     -0.4727     -0.4667     -0.4606    
      -0.4545     -0.4485     -0.4424     -0.4364     -0.4303     -0.4242     -0.4182     -0.4121     -0.4061     -0.4000    
      -0.3939     -0.3879     -0.3818     -0.3758     -0.3697     -0.3636     -0.3576     -0.3515     -0.3455     -0.3394    
      -0.3333     -0.3273     -0.3212     -0.3152     -0.3091     -0.3030     -0.2970     -0.2909     -0.2848     -0.2788    
      -0.2727     -0.2667     -0.2606     -0.2545     -0.2485     -0.2424     -0.2364     -0.2303     -0.2242     -0.2182    
      -0.2121     -0.2061     -0.2000     -1000.0     -1000.0     -1000.0     -1000.0     -1000.0     -1000.0     -1000.0    
      -1000.0     -1000.0     -1000.0     -1000.0     -1000.0     -1000.0     -1000.0     -1000.0     -1000.0     -1000.0    
      -1000.0     -1000.0     -1000.0     -1000.0     -1000.0     -1000.0     -1000.0     -1000.0     -1000.0     -1000.0    
      -1000.0     -1000.0     -1000.0     -1000.0     -1000.0     -1000.0     -1000.0     -1000.0     -1000.0     -1000.0    
      -1000.0     -1000.0     -1000.0     -1000.0     -1000.0     -1000.0     -1000.0     -1000.0     -1000.0     -1000.0    
      -1000.0     -1000.0     -1000.0     -1000.0     -1000.0     -1000.0     -1000.0     -1000.0     -1000.0     -1000.0    
      -1000.0     -1000.0     -1000.0     -1000.0     -1000.0     -1000.0     -1000.0     -1000.0     -1000.0     -1000.0    
 126   -1.000     -0.9939     -0.9879     -0.9818     -0.9758     -0.9697     -0.9636     -0.9576     -0.9515     -0.9455    
      -0.9394     -0.9333     -0.9273     -0.9212     -0.9152     -0.9091     -0.9030     -0.8970     -0.8909     -0.8848    
      -0.8788     -0.8727     -0.8667     -0.8606     -0.8545     -0.8485     -0.8424     -0.8364     -0.8303     -0.8242    
      -0.8182     -0.8121     -0.8061     -0.8000     -0.7939     -0.7879     -0.7818     -0.7758     -0.7697     -0.7636    
      -0.7576     -0.7515     -0.7455     -0.7394     -0.7333     -0.7273     -0.7212     -0.7152     -0.7091     -0.7030    
      -0.6970     -0.6909     -0.6848     -0.6788     -0.6727     -0.6667     -0.6606     -0.6545     -0.6485     -0.6424    
      -0.6364     -0.6303     -0.6242     -0.6182     -0.6121     -0.6061     -0.6000     -0.5939     -0.5879     -0.5818    
      -0.5758     -0.5697     -0.5636     -0.5576     -0.5515     -0.5455     -0.5394     -0.5333     -0.5273     -0.5212    
      -0.5152     -0.5091     -0.5030     -0.4970     -0.4909     -0.4848     -0.4788     -0.4727     -0.4667     -0.4606    
      -0.4545     -0.4485     -0.4424     -0.4364     -0.4303     -0.4242     -0.4182     -0.4121     -0.4061     -0.4000    
      -0.3939     -0.3879     -0.3818     -0.3758     -0.3697     -0.3636     -0.3576     -0.3515     -0.3455     -0.3394    
      -0.3333     -0.3273     -0.3212     -0.3152     -0.3091     -0.3030     -0.2970     -0.2909     -0.2848     -0.2788    
      -0.2727     -0.2667     -0.2606     -0.2545     -0.2485     -0.2424     -0.2364     -0.2303     -0.2242     -0.2182    
      -0.2121     -0.2061     -0.2000     -1000.0     -1000.0     -1000.0     -1000.0     -1000.0     -1000.0     -1000.0    
      -1000.0     -1000.0     -1000.0     -1000.0     -1000.0     -1000.0     -1000.0     -1000.0     -1000.0     -1000.0    
      -1000.0     -1000.0     -1000.0     -1000.0     -1000.0     -1000.0     -1000.0     -1000.0     -1000.0     -1000.0    
      -1000.0     -1000.0     -1000.0     -1000.0     -1000.0     -1000.0     -1000.0     -1000.0     -1000.0     -1000.0    
      -1000.0     -1000.0     -1000.0     -1000.0     -1000.0     -1000.0     -1000.0     -1000.0     -1000.0     -1000.0    
      -1000.0     -1000.0     -1000.0     -1000.0     -1000.0     -1000.0     -1000.0     -1000.0     -1000.0     -1000.0    
      -1000.0     -1000.0     -1000.0     -1000.0     -1000.0     -1000.0     -1000.0     -1000.0     -1000.0     -1000.0    
 127   -1.000     -0.9939     -0.9879     -0.9818     -0.9758     -0.9697     -0.9636     -0.9576     -0.9515     -0.9455    
      -0.9394     -0.9333     -0.9273     -0.9212     -0.9152     -0.9091     -0.9030     -0.8970     -0.8909     -0.8848    
      -0.8788     -0.8727     -0.8667     -0.8606     -0.8545     -0.8485     -0.8424     -0.8364     -0.8303     -0.8242    
      -0.8182     -0.8121     -0.8061     -0.8000     -0.7939     -0.7879     -0.7818     -0.7758     -0.7697     -0.7636    
      -0.7576     -0.7515     -0.7455     -0.7394     -0.7333     -0.7273     -0.7212     -0.7152     -0.7091     -0.7030    
      -0.6970     -0.6909     -0.6848     -0.6788     -0.6727     -0.6667     -0.6606     -0.6545     -0.6485     -0.6424    
      -0.6364     -0.6303     -0.6242     -0.6182     -0.6121     -0.6061     -0.6000     -0.5939     -0.5879     -0.5818    
      -0.5758     -0.5697     -0.5636     -0.5576     -0.5515     -0.5455     -0.5394     -0.5333     -0.5273     -0.5212    
      -0.5152     -0.5091     -0.5030     -0.4970     -0.4909     -0.4848     -0.4788     -0.4727     -0.4667     -0.4606    
      -0.4545     -0.4485     -0.4424     -0.4364     -0.4303     -0.4242     -0.4182     -0.4121     -0.4061     -0.4000    
      -0.3939     -0.3879     -0.3818     -0.3758     -0.3697     -0.3636     -0.3576     -0.3515     -0.3455     -0.3394    
      -0.3333     -0.3273     -0.3212     -0.3152     -0.3091     -0.3030     -0.2970     -0.2909     -0.2848     -0.2788    
      -0.2727     -0.2667     -0.2606     -0.2545     -0.2485     -0.2424     -0.2364     -0.2303     -0.2242     -0.2182    
      -0.2121     -0.2061     -0.2000     -1000.0     -1000.0     -1000.0     -1000.0     -1000.0     -1000.0     -1000.0    
      -1000.0     -1000.0     -1000.0     -1000.0     -1000.0     -1000.0     -1000.0     -1000.0     -1000.0     -1000.0    
      -1000.0     -1000.0     -1000.0     -1000.0     -1000.0     -1000.0     -1000.0     -1000.0     -1000.0     -1000.0    
      -1000.0     -1000.0     -1000.0     -1000.0     -1000.0     -1000.0     -1000.0     -1000.0     -1000.0     -1000.0    
      -1000.0     -1000.0     -1000.0     -1000.0     -1000.0     -1000.0     -1000.0     -1000.0     -1000.0     -1000.0    
      -1000.0     -1000.0     -1000.0     -1000.0     -1000.0     -1000.0     -1000.0     -1000.0     -1000.0     -1000.0    
      -1000.0     -1000.0     -1000.0     -1000.0     -1000.0     -1000.0     -1000.0     -1000.0     -1000.0     -1000.0    
 128   -1.000     -0.9939     -0.9879     -0.9818     -0.9758     -0.9697     -0.9636     -0.9576     -0.9515     -0.9455    
      -0.9394     -0.9333     -0.9273     -0.9212     -0.9152     -0.9091     -0.9030     -0.8970     -0.8909     -0.8848    
      -0.8788     -0.8727     -0.8667     -0.8606     -0.8545     -0.8485     -0.8424     -0.8364     -0.8303     -0.8242    
      -0.8182     -0.8121     -0.8061     -0.8000     -0.7939     -0.7879     -0.7818     -0.7758     -0.7697     -0.7636    
      -0.7576     -0.7515     -0.7455     -0.7394     -0.7333     -0.7273     -0.7212     -0.7152     -0.7091     -0.7030    
      -0.6970     -0.6909     -0.6848     -0.6788     -0.6727     -0.6667     -0.6606     -0.6545     -0.6485     -0.6424    
      -0.6364     -0.6303     -0.6242     -0.6182     -0.6121     -0.6061     -0.6000     -0.5939     -0.5879     -0.5818    
      -0.5758     -0.5697     -0.5636     -0.5576     -0.5515     -0.5455     -0.5394     -0.5333     -0.5273     -0.5212    
      -0.5152     -0.5091     -0.5030     -0.4970     -0.4909     -0.4848     -0.4788     -0.4727     -0.4667     -0.4606    
      -0.4545     -0.4485     -0.4424     -0.4364     -0.4303     -0.4242     -0.4182     -0.4121     -0.4061     -0.4000    
      -0.3939     -0.3879     -0.3818     -0.3758     -0.3697     -0.3636     -0.3576     -0.3515     -0.3455     -0.3394    
      -0.3333     -0.3273     -0.3212     -0.3152     -0.3091     -0.3030     -0.2970     -0.2909     -0.2848     -0.2788    
      -0.2727     -0.2667     -0.2606     -0.2545     -0.2485     -0.2424     -0.2364     -0.2303     -0.2242     -0.2182    
      -0.2121     -0.2061     -0.2000     -1000.0     -1000.0     -1000.0     -1000.0     -1000.0     -1000.0     -1000.0    
      -1000.0     -1000.0     -1000.0     -1000.0     -1000.0     -1000.0     -1000.0     -1000.0     -1000.0     -1000.0    
      -1000.0     -1000.0     -1000.0     -1000.0     -1000.0     -1000.0     -1000.0     -1000.0     -1000.0     -1000.0    
      -1000.0     -1000.0     -1000.0     -1000.0     -1000.0     -1000.0     -1000.0     -1000.0     -1000.0     -1000.0    
      -1000.0     -1000.0     -1000.0     -1000.0     -1000.0     -1000.0     -1000.0     -1000.0     -1000.0     -1000.0    
      -1000.0     -1000.0     -1000.0     -1000.0     -1000.0     -1000.0     -1000.0     -1000.0     -1000.0     -1000.0    
      -1000.0     -1000.0     -1000.0     -1000.0     -1000.0     -1000.0     -1000.0     -1000.0     -1000.0     -1000.0    
 129   -1.000     -0.9939     -0.9879     -0.9818     -0.9758     -0.9697     -0.9636     -0.9576     -0.9515     -0.9455    
      -0.9394     -0.9333     -0.9273     -0.9212     -0.9152     -0.9091     -0.9030     -0.8970     -0.8909     -0.8848    
      -0.8788     -0.8727     -0.8667     -0.8606     -0.8545     -0.8485     -0.8424     -0.8364     -0.8303     -0.8242    
      -0.8182     -0.8121     -0.8061     -0.8000     -0.7939     -0.7879     -0.7818     -0.7758     -0.7697     -0.7636    
      -0.7576     -0.7515     -0.7455     -0.7394     -0.7333     -0.7273     -0.7212     -0.7152     -0.7091     -0.7030    
      -0.6970     -0.6909     -0.6848     -0.6788     -0.6727     -0.6667     -0.6606     -0.6545     -0.6485     -0.6424    
      -0.6364     -0.6303     -0.6242     -0.6182     -0.6121     -0.6061     -0.6000     -0.5939     -0.5879     -0.5818    
      -0.5758     -0.5697     -0.5636     -0.5576     -0.5515     -0.5455     -0.5394     -0.5333     -0.5273     -0.5212    
      -0.5152     -0.5091     -0.5030     -0.4970     -0.4909     -0.4848     -0.4788     -0.4727     -0.4667     -0.4606    
      -0.4545     -0.4485     -0.4424     -0.4364     -0.4303     -0.4242     -0.4182     -0.4121     -0.4061     -0.4000    
      -0.3939     -0.3879     -0.3818     -0.3758     -0.3697     -0.3636     -0.3576     -0.3515     -0.3455     -0.3394    
      -0.3333     -0.3273     -0.3212     -0.3152     -0.3091     -0.3030     -0.2970     -0.2909     -0.2848     -0.2788    
      -0.2727     -0.2667     -0.2606     -0.2545     -0.2485     -0.2424     -0.2364     -0.2303     -0.2242     -0.2182    
      -0.2121     -0.2061     -0.2000     -1000.0     -1000.0     -1000.0     -1000.0     -1000.0     -1000.0     -1000.0    
      -1000.0     -1000.0     -1000.0     -1000.0     -1000.0     -1000.0     -1000.0     -1000.0     -1000.0     -1000.0    
      -1000.0     -1000.0     -1000.0     -1000.0     -1000.0     -1000.0     -1000.0     -1000.0     -1000.0     -1000.0    
      -1000.0     -1000.0     -1000.0     -1000.0     -1000.0     -1000.0     -1000.0     -1000.0     -1000.0     -1000.0    
      -1000.0     -1000.0     -1000.0     -1000.0     -1000.0     -1000.0     -1000.0     -1000.0     -1000.0     -1000.0    
      -1000.0     -1000.0     -1000.0     -1000.0     -1000.0     -1000.0     -1000.0     -1000.0     -1000.0     -1000.0    
      -1000.0     -1000.0     -1000.0     -1000.0     -1000.0     -1000.0     -1000.0     -1000.0     -1000.0     -1000.0    
 130   -1.000     -0.9939     -0.9879     -0.9818     -0.9758     -0.9697     -0.9636     -0.9576     -0.9515     -0.9455    
      -0.9394     -0.9333     -0.9273     -0.9212     -0.9152     -0.9091     -0.9030     -0.8970     -0.8909     -0.8848    
      -0.8788     -0.8727     -0.8667     -0.8606     -0.8545     -0.8485     -0.8424     -0.8364     -0.8303     -0.8242    
      -0.8182     -0.8121     -0.8061     -0.8000     -0.7939     -0.7879     -0.7818     -0.7758     -0.7697     -0.7636    
      -0.7576     -0.7515     -0.7455     -0.7394     -0.7333     -0.7273     -0.7212     -0.7152     -0.7091     -0.7030    
      -0.6970     -0.6909     -0.6848     -0.6788     -0.6727     -0.6667     -0.6606     -0.6545     -0.6485     -0.6424    
      -0.6364     -0.6303     -0.6242     -0.6182     -0.6121     -0.6061     -0.6000     -0.5939     -0.5879     -0.5818    
      -0.5758     -0.5697     -0.5636     -0.5576     -0.5515     -0.5455     -0.5394     -0.5333     -0.5273     -0.5212    
      -0.5152     -0.5091     -0.5030     -0.4970     -0.4909     -0.4848     -0.4788     -0.4727     -0.4667     -0.4606    
      -0.4545     -0.4485     -0.4424     -0.4364     -0.4303     -0.4242     -0.4182     -0.4121     -0.4061     -0.4000    
      -0.3939     -0.3879     -0.3818     -0.3758     -0.3697     -0.3636     -0.3576     -0.3515     -0.3455     -0.3394    
      -0.3333     -0.3273     -0.3212     -0.3152     -0.3091     -0.3030     -0.2970     -0.2909     -0.2848     -0.2788    
      -0.2727     -0.2667     -0.2606     -0.2545     -0.2485     -0.2424     -0.2364     -0.2303     -0.2242     -0.2182    
      -0.2121     -0.2061     -0.2000     -1000.0     -1000.0     -1000.0     -1000.0     -1000.0     -1000.0     -1000.0    
      -1000.0     -1000.0     -1000.0     -1000.0     -1000.0     -1000.0     -1000.0     -1000.0     -1000.0     -1000.0    
      -1000.0     -1000.0     -1000.0     -1000.0     -1000.0     -1000.0     -1000.0     -1000.0     -1000.0     -1000.0    
      -1000.0     -1000.0     -1000.0     -1000.0     -1000.0     -1000.0     -1000.0     -1000.0     -1000.0     -1000.0    
      -1000.0     -1000.0     -1000.0     -1000.0     -1000.0     -1000.0     -1000.0     -1000.0     -1000.0     -1000.0    
      -1000.0     -1000.0     -1000.0     -1000.0     -1000.0     -1000.0     -1000.0     -1000.0     -1000.0     -1000.0    
      -1000.0     -1000.0     -1000.0     -1000.0     -1000.0     -1000.0     -1000.0     -1000.0     -1000.0     -1000.0    

 HEAD WILL BE SAVED ON UNIT   51 AT END OF TIME STEP    1, STRESS PERIOD    1
1
  VOLUMETRIC BUDGET FOR ENTIRE MODEL AT END OF TIME STEP    1, STRESS PERIOD   1
  ------------------------------------------------------------------------------

     CUMULATIVE VOLUMES      L**3       RATES FOR THIS TIME STEP      L**3/T
     ------------------                 ------------------------

           IN:                                      IN:
           ---                                      ---
             STORAGE =           0.0000               STORAGE =           0.0000
       CONSTANT HEAD =       1.1859E-04         CONSTANT HEAD =       1.1859E-03

            TOTAL IN =       1.1859E-04              TOTAL IN =       1.1859E-03

          OUT:                                     OUT:
          ----                                     ----
             STORAGE =           0.0000               STORAGE =           0.0000
       CONSTANT HEAD =       1.1859E-04         CONSTANT HEAD =       1.1859E-03

           TOTAL OUT =       1.1859E-04             TOTAL OUT =       1.1859E-03

            IN - OUT =      -2.1100E-10              IN - OUT =      -2.0955E-09

 PERCENT DISCREPANCY =          -0.00     PERCENT DISCREPANCY =          -0.00






         TIME SUMMARY AT END OF TIME STEP    1 IN STRESS PERIOD    1
                    SECONDS     MINUTES      HOURS       DAYS        YEARS
                    -----------------------------------------------------------
   TIME STEP LENGTH  8640.0      144.00      2.4000     0.10000     2.73785E-04
 STRESS PERIOD TIME  8640.0      144.00      2.4000     0.10000     2.73785E-04
         TOTAL TIME  8640.0      144.00      2.4000     0.10000     2.73785E-04
1
 
 SOLVING FOR HEAD 

 NO OUTPUT CONTROL FOR STRESS PERIOD    1   TIME STEP    2
 
 SOLVING FOR HEAD 

 NO OUTPUT CONTROL FOR STRESS PERIOD    1   TIME STEP    3
 
 SOLVING FOR HEAD 

 NO OUTPUT CONTROL FOR STRESS PERIOD    1   TIME STEP    4
 
 SOLVING FOR HEAD 

 NO OUTPUT CONTROL FOR STRESS PERIOD    1   TIME STEP    5
 
 SOLVING FOR HEAD 

 NO OUTPUT CONTROL FOR STRESS PERIOD    1   TIME STEP    6
 
 SOLVING FOR HEAD 

 NO OUTPUT CONTROL FOR STRESS PERIOD    1   TIME STEP    7
 
 SOLVING FOR HEAD 

 NO OUTPUT CONTROL FOR STRESS PERIOD    1   TIME STEP    8
 
 SOLVING FOR HEAD 

 NO OUTPUT CONTROL FOR STRESS PERIOD    1   TIME STEP    9
 
 SOLVING FOR HEAD 

 NO OUTPUT CONTROL FOR STRESS PERIOD    1   TIME STEP   10
1
  VOLUMETRIC BUDGET FOR ENTIRE MODEL AT END OF TIME STEP   10, STRESS PERIOD   1
  ------------------------------------------------------------------------------

     CUMULATIVE VOLUMES      L**3       RATES FOR THIS TIME STEP      L**3/T
     ------------------                 ------------------------

           IN:                                      IN:
           ---                                      ---
             STORAGE =           0.0000               STORAGE =           0.0000
       CONSTANT HEAD =       1.1859E-03         CONSTANT HEAD =       1.1859E-03

            TOTAL IN =       1.1859E-03              TOTAL IN =       1.1859E-03

          OUT:                                     OUT:
          ----                                     ----
             STORAGE =           0.0000               STORAGE =           0.0000
       CONSTANT HEAD =       1.1859E-03         CONSTANT HEAD =       1.1859E-03

           TOTAL OUT =       1.1859E-03             TOTAL OUT =       1.1859E-03

            IN - OUT =      -1.1642E-10              IN - OUT =           0.0000

 PERCENT DISCREPANCY =          -0.00     PERCENT DISCREPANCY =           0.00






         TIME SUMMARY AT END OF TIME STEP   10 IN STRESS PERIOD    1
                    SECONDS     MINUTES      HOURS       DAYS        YEARS
                    -----------------------------------------------------------
   TIME STEP LENGTH  8640.0      144.00      2.4000     0.10000     2.73785E-04
 STRESS PERIOD TIME  86400.      1440.0      24.000      1.0000     2.73785E-03
         TOTAL TIME  86400.      1440.0      24.000      1.0000     2.73785E-03
1

 Run end date and time (yyyy/mm/dd hh:mm:ss): 2020/05/07 12:36:09
 Elapsed run time:  0.763 Seconds

